data_crystal
 
_cell_length_a    29.70100
_cell_length_b    29.70100
_cell_length_c    6.92040
_cell_angle_alpha 90.00000
_cell_angle_beta  90.00000
_cell_angle_gamma 120.00000
 
_symmetry_space_group_name_Hall 'P 1'
_symmetry_space_group_name_H-M  'P 1'
 
loop_
_symmetry_equiv_pos_as_xyz
 'x,y,z' 
 
loop_
_atom_site_label
_atom_site_type_symbol
_atom_site_fract_x
_atom_site_fract_y
_atom_site_fract_z
_atom_site_charge
B          B       0.10917   0.55432   0.25655   0.0000000000
B          B       0.43823   0.55117   0.26165   0.0000000000
B          B       0.43592   0.87999   0.25529   0.0000000000
B          B       0.88487   0.44060   0.24429   0.0000000000
B          B       0.54987   0.43753   0.25462   0.0000000000
B          B       0.55267   0.10829   0.24955   0.0000000000
O          O       0.60572   0.13786   0.25164   0.0000000000
C          C       0.46899   0.02420   0.24548   0.0000000000
C          C       0.61836   0.19023   0.23974   0.0000000000
C          C       0.66076   0.23593   0.24864   0.0000000000
C          C       0.66601   0.28419   0.25179   0.0000000000
O          O       0.85141   0.46504   0.25828   0.0000000000
C          C       0.96578   0.43776   0.24669   0.0000000000
C          C       0.79954   0.41745   0.25591   0.0000000000
C          C       0.75513   0.42042   0.24275   0.0000000000
C          C       0.71024   0.37900   0.25914   0.0000000000
O          O       0.52577   0.38107   0.24872   0.0000000000
C          C       0.54611   0.52096   0.25573   0.0000000000
C          C       0.56917   0.37886   0.24943   0.0000000000
C          C       0.56735   0.33267   0.24574   0.0000000000
C          C       0.61600   0.33127   0.24962   0.0000000000
O          O       0.38192   0.85103   0.25412   0.0000000000
C          C       0.52336   0.96811   0.24276   0.0000000000
C          C       0.37422   0.79992   0.25072   0.0000000000
C          C       0.32633   0.75511   0.25865   0.0000000000
C          C       0.32646   0.70662   0.25438   0.0000000000
O          O       0.13561   0.52194   0.25521   0.0000000000
C          C       0.02044   0.55112   0.24934   0.0000000000
C          C       0.18327   0.56800   0.25043   0.0000000000
C          C       0.23286   0.56781   0.24587   0.0000000000
C          C       0.27846   0.61482   0.23775   0.0000000000
O          O       0.46494   0.60836   0.24686   0.0000000000
C          C       0.44281   0.47049   0.25340   0.0000000000
C          C       0.41701   0.61574   0.25941   0.0000000000
C          C       0.42050   0.66194   0.26132   0.0000000000
C          C       0.37409   0.66139   0.24420   0.0000000000
O          O       0.13929   0.60610   0.24528   0.0000000000
C          C       0.02063   0.46674   0.25078   0.0000000000
C          C       0.18679   0.61320   0.23854   0.0000000000
C          C       0.23334   0.66171   0.24504   0.0000000000
C          C       0.28023   0.65959   0.24285   0.0000000000
O          O       0.46396   0.85245   0.24393   0.0000000000
C          C       0.44121   0.96523   0.24511   0.0000000000
C          C       0.42199   0.80169   0.24770   0.0000000000
C          C       0.42284   0.75786   0.23662   0.0000000000
C          C       0.37444   0.70761   0.24717   0.0000000000
O          O       0.38457   0.52587   0.24046   0.0000000000
C          C       0.52075   0.54564   0.24994   0.0000000000
C          C       0.37590   0.56669   0.26081   0.0000000000
C          C       0.32867   0.56777   0.24577   0.0000000000
C          C       0.32711   0.61088   0.25018   0.0000000000
O          O       0.84611   0.37905   0.25316   0.0000000000
C          C       0.96658   0.52075   0.23625   0.0000000000
C          C       0.80004   0.37058   0.25300   0.0000000000
C          C       0.75524   0.32905   0.24950   0.0000000000
C          C       0.71037   0.32822   0.25194   0.0000000000
O          O       0.52993   0.14030   0.24672   0.0000000000
C          C       0.54909   0.02495   0.25167   0.0000000000
C          C       0.56539   0.18474   0.26014   0.0000000000
C          C       0.56765   0.23452   0.25320   0.0000000000
C          C       0.61629   0.28442   0.25007   0.0000000000
O          O       0.61080   0.46305   0.24220   0.0000000000
C          C       0.46673   0.44245   0.24935   0.0000000000
C          C       0.61493   0.42104   0.24613   0.0000000000
C          C       0.65913   0.42033   0.24854   0.0000000000
C          C       0.66625   0.37459   0.23681   0.0000000000
C          C       0.94113   0.46898   0.24624   0.0000000000
C          C       0.52036   0.46673   0.25645   0.0000000000
C          C       0.52149   0.04838   0.25383   0.0000000000
C          C       0.04639   0.52257   0.25029   0.0000000000
C          C       0.46292   0.51925   0.25739   0.0000000000
C          C       0.46787   0.94262   0.24561   0.0000000000
H          H       0.44553   0.03710   0.24063   0.0000000000
H          H       0.69776   0.23350   0.25696   0.0000000000
H          H       0.94604   0.39830   0.25262   0.0000000000
H          H       0.76092   0.45859   0.25850   0.0000000000
H          H       0.59139   0.54240   0.25525   0.0000000000
H          H       0.53306   0.29470   0.25370   0.0000000000
H          H       0.54243   0.94728   0.24512   0.0000000000
H          H       0.29231   0.75613   0.25433   0.0000000000
H          H       0.04369   0.58723   0.25935   0.0000000000
H          H       0.22837   0.52775   0.25421   0.0000000000
H          H       0.39849   0.44803   0.25526   0.0000000000
H          H       0.45518   0.69268   0.24804   0.0000000000
H          H       0.04322   0.44631   0.25505   0.0000000000
H          H       0.23272   0.69436   0.25137   0.0000000000
H          H       0.40009   0.94847   0.23866   0.0000000000
H          H       0.45674   0.75686   0.24700   0.0000000000
H          H       0.54069   0.58668   0.24380   0.0000000000
H          H       0.29513   0.53109   0.25507   0.0000000000
H          H       0.94398   0.53842   0.26272   0.0000000000
H          H       0.75792   0.29498   0.24895   0.0000000000
H          H       0.58995   0.04422   0.24412   0.0000000000
H          H       0.53060   0.23162   0.24833   0.0000000000
H          H       0.44587   0.40010   0.24473   0.0000000000
H          H       0.69946   0.45698   0.25351   0.0000000000
B          B       0.10751   0.54968   0.75862   0.0000000000
B          B       0.43646   0.55162   0.75302   0.0000000000
B          B       0.43817   0.88192   0.76093   0.0000000000
B          B       0.88078   0.43728   0.74035   0.0000000000
B          B       0.54869   0.43462   0.75466   0.0000000000
B          B       0.55036   0.10781   0.74651   0.0000000000
O          O       0.60787   0.14031   0.74409   0.0000000000
C          C       0.46591   0.01938   0.75783   0.0000000000
C          C       0.61375   0.18482   0.75823   0.0000000000
C          C       0.66065   0.23225   0.74568   0.0000000000
C          C       0.66023   0.28092   0.75407   0.0000000000
O          O       0.84743   0.46462   0.75994   0.0000000000
C          C       0.96688   0.43910   0.74811   0.0000000000
C          C       0.79912   0.41851   0.74269   0.0000000000
C          C       0.75526   0.42358   0.74133   0.0000000000
C          C       0.70996   0.37522   0.75105   0.0000000000
O          O       0.52494   0.38222   0.75073   0.0000000000
C          C       0.55125   0.52323   0.76715   0.0000000000
C          C       0.56791   0.37375   0.76132   0.0000000000
C          C       0.56686   0.33020   0.74498   0.0000000000
C          C       0.61530   0.32967   0.75204   0.0000000000
O          O       0.38171   0.85159   0.75477   0.0000000000
C          C       0.51956   0.96859   0.74847   0.0000000000
C          C       0.37716   0.80330   0.75291   0.0000000000
C          C       0.32707   0.75241   0.75770   0.0000000000
C          C       0.32668   0.70802   0.74666   0.0000000000
O          O       0.13965   0.52516   0.74823   0.0000000000
C          C       0.02288   0.54984   0.75191   0.0000000000
C          C       0.18710   0.56684   0.74553   0.0000000000
C          C       0.23483   0.56586   0.74324   0.0000000000
C          C       0.28522   0.61925   0.74580   0.0000000000
O          O       0.46082   0.60705   0.74234   0.0000000000
C          C       0.43788   0.46568   0.74380   0.0000000000
C          C       0.42370   0.61518   0.75999   0.0000000000
C          C       0.42278   0.66321   0.75439   0.0000000000
C          C       0.37626   0.66397   0.74462   0.0000000000
O          O       0.13561   0.60617   0.74371   0.0000000000
C          C       0.01986   0.46394   0.74680   0.0000000000
C          C       0.18788   0.61928   0.74235   0.0000000000
C          C       0.23410   0.66235   0.75380   0.0000000000
C          C       0.27973   0.66368   0.75899   0.0000000000
O          O       0.46310   0.85110   0.75570   0.0000000000
C          C       0.44154   0.96767   0.76528   0.0000000000
C          C       0.42115   0.80068   0.76274   0.0000000000
C          C       0.41940   0.75631   0.76056   0.0000000000
C          C       0.37802   0.71020   0.75361   0.0000000000
O          O       0.38091   0.52468   0.73852   0.0000000000
C          C       0.52103   0.54780   0.74264   0.0000000000
C          C       0.37664   0.56933   0.75578   0.0000000000
C          C       0.32867   0.56632   0.75397   0.0000000000
C          C       0.32709   0.61487   0.75909   0.0000000000
O          O       0.85293   0.38465   0.76853   0.0000000000
C          C       0.96591   0.52155   0.74876   0.0000000000
C          C       0.80311   0.37431   0.73587   0.0000000000
C          C       0.75794   0.32860   0.75318   0.0000000000
C          C       0.70954   0.32783   0.73609   0.0000000000
O          O       0.53015   0.14081   0.75180   0.0000000000
C          C       0.54623   0.02163   0.76145   0.0000000000
C          C       0.57116   0.19043   0.74799   0.0000000000
C          C       0.57006   0.23274   0.74199   0.0000000000
C          C       0.61611   0.28171   0.75095   0.0000000000
O          O       0.60699   0.46239   0.75506   0.0000000000
C          C       0.46894   0.44129   0.75025   0.0000000000
C          C       0.61433   0.41757   0.75573   0.0000000000
C          C       0.66037   0.42128   0.75235   0.0000000000
C          C       0.66241   0.37846   0.74374   0.0000000000
C          C       0.94156   0.46926   0.74665   0.0000000000
C          C       0.52214   0.46783   0.74760   0.0000000000
C          C       0.51820   0.04889   0.75593   0.0000000000
C          C       0.04745   0.52138   0.74489   0.0000000000
C          C       0.46898   0.52206   0.74903   0.0000000000
C          C       0.46697   0.93882   0.74642   0.0000000000
H          H       0.44660   0.04317   0.74572   0.0000000000
H          H       0.69839   0.23513   0.75222   0.0000000000
H          H       0.94583   0.40031   0.74149   0.0000000000
H          H       0.76150   0.45740   0.73328   0.0000000000
H          H       0.58804   0.54161   0.73746   0.0000000000
H          H       0.53466   0.29475   0.74987   0.0000000000
H          H       0.54270   0.94659   0.74794   0.0000000000
H          H       0.29134   0.75561   0.75943   0.0000000000
H          H       0.04406   0.58915   0.74530   0.0000000000
H          H       0.22945   0.52889   0.76290   0.0000000000
H          H       0.40179   0.44736   0.76267   0.0000000000
H          H       0.45826   0.69532   0.75544   0.0000000000
H          H       0.04145   0.44752   0.74817   0.0000000000
H          H       0.23188   0.69683   0.74557   0.0000000000
H          H       0.39757   0.94784   0.74429   0.0000000000
H          H       0.45684   0.75600   0.75141   0.0000000000
H          H       0.54622   0.59182   0.75714   0.0000000000
H          H       0.29294   0.53295   0.76077   0.0000000000
H          H       0.94720   0.54164   0.74417   0.0000000000
H          H       0.75781   0.29307   0.75285   0.0000000000
H          H       0.59096   0.04107   0.75232   0.0000000000
H          H       0.53353   0.23535   0.75753   0.0000000000
H          H       0.44949   0.40263   0.75950   0.0000000000
H          H       0.69790   0.45869   0.75103   0.0000000000
