data_crystal
 
_cell_length_a    37.80990
_cell_length_b    37.80990
_cell_length_c    6.95260
_cell_angle_alpha 90.00000
_cell_angle_beta  90.00000
_cell_angle_gamma 120.00000
 
_symmetry_space_group_name_Hall 'P 1'
_symmetry_space_group_name_H-M  'P 1'
 
loop_
_symmetry_equiv_pos_as_xyz
 'x,y,z' 
 
loop_
_atom_site_label
_atom_site_type_symbol
_atom_site_fract_x
_atom_site_fract_y
_atom_site_fract_z
_atom_site_charge
B          B       0.84228   0.42044   0.24187   0.0000000000
C          C       0.89154   0.44580   0.24300   0.0000000000
C          C       0.97651   0.48799   0.24835   0.0000000000
B          B       0.57615   0.41941   0.24833   0.0000000000
C          C       0.55449   0.44288   0.24704   0.0000000000
C          C       0.51218   0.48981   0.26666   0.0000000000
B          B       0.58031   0.15874   0.26076   0.0000000000
C          C       0.55729   0.11099   0.25032   0.0000000000
C          C       0.51259   0.02448   0.24702   0.0000000000
B          B       0.15739   0.58016   0.25007   0.0000000000
C          C       0.11248   0.55948   0.26810   0.0000000000
C          C       0.02447   0.51297   0.25159   0.0000000000
B          B       0.42075   0.57849   0.25376   0.0000000000
C          C       0.44430   0.55480   0.24933   0.0000000000
C          C       0.49238   0.51244   0.25239   0.0000000000
B          B       0.42092   0.84211   0.25174   0.0000000000
C          C       0.44649   0.88844   0.24723   0.0000000000
C          C       0.48938   0.97600   0.25661   0.0000000000
O          O       0.81586   0.37454   0.25144   0.0000000000
C          C       0.91140   0.42452   0.24023   0.0000000000
C          C       0.95616   0.44589   0.25348   0.0000000000
C          C       0.70368   0.33250   0.24010   0.0000000000
C          C       0.78046   0.37007   0.24507   0.0000000000
C          C       0.74234   0.33294   0.25247   0.0000000000
H          H       0.74526   0.30853   0.24958   0.0000000000
H          H       0.89258   0.39003   0.25792   0.0000000000
H          H       0.96849   0.42569   0.24489   0.0000000000
O          O       0.62465   0.43996   0.24205   0.0000000000
C          C       0.57525   0.48662   0.26054   0.0000000000
C          C       0.55320   0.50816   0.24138   0.0000000000
C          C       0.66767   0.37462   0.25872   0.0000000000
C          C       0.62990   0.40756   0.25307   0.0000000000
C          C       0.66645   0.41019   0.25141   0.0000000000
H          H       0.69200   0.43776   0.25148   0.0000000000
H          H       0.61040   0.50752   0.25471   0.0000000000
H          H       0.57122   0.53845   0.25532   0.0000000000
O          O       0.55865   0.18345   0.25859   0.0000000000
C          C       0.51241   0.08854   0.25458   0.0000000000
C          C       0.49064   0.04514   0.24977   0.0000000000
C          C       0.62898   0.29578   0.24573   0.0000000000
C          C       0.59372   0.22158   0.23611   0.0000000000
C          C       0.59041   0.25582   0.25723   0.0000000000
H          H       0.56132   0.25237   0.24966   0.0000000000
H          H       0.49463   0.10224   0.24046   0.0000000000
H          H       0.45832   0.03176   0.25319   0.0000000000
O          O       0.18512   0.62600   0.25764   0.0000000000
C          C       0.08827   0.57679   0.24984   0.0000000000
C          C       0.04731   0.55458   0.26213   0.0000000000
C          C       0.29553   0.66660   0.25566   0.0000000000
C          C       0.22545   0.63106   0.24105   0.0000000000
C          C       0.25838   0.66582   0.24926   0.0000000000
H          H       0.25588   0.69143   0.25128   0.0000000000
H          H       0.10760   0.61129   0.24829   0.0000000000
H          H       0.03255   0.57627   0.25705   0.0000000000
O          O       0.37492   0.55816   0.24847   0.0000000000
C          C       0.42168   0.51148   0.25703   0.0000000000
C          C       0.44536   0.49094   0.24994   0.0000000000
C          C       0.33207   0.62895   0.24633   0.0000000000
C          C       0.37004   0.59427   0.26403   0.0000000000
C          C       0.33426   0.59108   0.24875   0.0000000000
H          H       0.30462   0.56082   0.24938   0.0000000000
H          H       0.38924   0.49448   0.25147   0.0000000000
H          H       0.42779   0.46229   0.25329   0.0000000000
O          O       0.44144   0.81724   0.25384   0.0000000000
C          C       0.48985   0.91143   0.24991   0.0000000000
C          C       0.50696   0.95392   0.24213   0.0000000000
C          C       0.36933   0.70241   0.24327   0.0000000000
C          C       0.40626   0.77722   0.25043   0.0000000000
C          C       0.40472   0.74268   0.25308   0.0000000000
H          H       0.43662   0.74444   0.23896   0.0000000000
H          H       0.50290   0.89579   0.24892   0.0000000000
H          H       0.54111   0.96787   0.24370   0.0000000000
O          O       0.37692   0.81878   0.26062   0.0000000000
C          C       0.42420   0.91171   0.25238   0.0000000000
C          C       0.44428   0.95341   0.25316   0.0000000000
C          C       0.33169   0.70554   0.24714   0.0000000000
C          C       0.37158   0.77711   0.25592   0.0000000000
C          C       0.33713   0.74351   0.24961   0.0000000000
H          H       0.30544   0.74308   0.25590   0.0000000000
H          H       0.39026   0.89414   0.25391   0.0000000000
H          H       0.42691   0.96964   0.26037   0.0000000000
O          O       0.44105   0.62237   0.24997   0.0000000000
C          C       0.48595   0.57440   0.24603   0.0000000000
C          C       0.50816   0.55273   0.24752   0.0000000000
C          C       0.37010   0.66626   0.24048   0.0000000000
C          C       0.40704   0.62848   0.25807   0.0000000000
C          C       0.40801   0.66841   0.23973   0.0000000000
H          H       0.44061   0.69470   0.25331   0.0000000000
H          H       0.50511   0.60885   0.24211   0.0000000000
H          H       0.54359   0.57413   0.24437   0.0000000000
O          O       0.18248   0.55944   0.24834   0.0000000000
C          C       0.08735   0.50982   0.25466   0.0000000000
C          C       0.04658   0.49248   0.24492   0.0000000000
C          C       0.29958   0.63143   0.25422   0.0000000000
C          C       0.22211   0.59272   0.24840   0.0000000000
C          C       0.25628   0.58956   0.25711   0.0000000000
H          H       0.25274   0.56190   0.25658   0.0000000000
H          H       0.10263   0.49524   0.24234   0.0000000000
H          H       0.03163   0.45736   0.24650   0.0000000000
O          O       0.62403   0.18201   0.24874   0.0000000000
C          C       0.57581   0.08894   0.25649   0.0000000000
C          C       0.55343   0.04683   0.24525   0.0000000000
C          C       0.66737   0.29788   0.24365   0.0000000000
C          C       0.62933   0.22192   0.26585   0.0000000000
C          C       0.66794   0.26049   0.25329   0.0000000000
H          H       0.69240   0.25121   0.25276   0.0000000000
H          H       0.60975   0.10585   0.24524   0.0000000000
H          H       0.57401   0.02986   0.25189   0.0000000000
O          O       0.55886   0.37806   0.25846   0.0000000000
C          C       0.51194   0.42291   0.24973   0.0000000000
C          C       0.49279   0.44570   0.25846   0.0000000000
C          C       0.63026   0.33359   0.24567   0.0000000000
C          C       0.59192   0.37188   0.24294   0.0000000000
C          C       0.59267   0.33393   0.24385   0.0000000000
H          H       0.56076   0.30819   0.25790   0.0000000000
H          H       0.49602   0.39214   0.23786   0.0000000000
H          H       0.45970   0.42672   0.25011   0.0000000000
O          O       0.81772   0.44182   0.24320   0.0000000000
C          C       0.91181   0.48624   0.24823   0.0000000000
C          C       0.95430   0.50850   0.24601   0.0000000000
C          C       0.70374   0.37138   0.25560   0.0000000000
C          C       0.77973   0.40836   0.25287   0.0000000000
C          C       0.73966   0.40683   0.23869   0.0000000000
H          H       0.74785   0.43967   0.25694   0.0000000000
H          H       0.89640   0.50581   0.23643   0.0000000000
H          H       0.96894   0.54154   0.23855   0.0000000000
B          B       0.84021   0.41867   0.75287   0.0000000000
C          C       0.89194   0.44472   0.73686   0.0000000000
C          C       0.97847   0.48770   0.76078   0.0000000000
B          B       0.58033   0.42302   0.74891   0.0000000000
C          C       0.55401   0.44386   0.73610   0.0000000000
C          C       0.51421   0.49127   0.75401   0.0000000000
B          B       0.57845   0.15747   0.74544   0.0000000000
C          C       0.55394   0.10931   0.74155   0.0000000000
C          C       0.51084   0.02408   0.75116   0.0000000000
B          B       0.15730   0.57916   0.75693   0.0000000000
C          C       0.11131   0.55579   0.74276   0.0000000000
C          C       0.02165   0.51232   0.75925   0.0000000000
B          B       0.42191   0.57828   0.74532   0.0000000000
C          C       0.44639   0.55374   0.73809   0.0000000000
C          C       0.48944   0.51170   0.73732   0.0000000000
B          B       0.42210   0.84551   0.73585   0.0000000000
C          C       0.44404   0.89053   0.73674   0.0000000000
C          C       0.48751   0.97632   0.75932   0.0000000000
O          O       0.81651   0.37624   0.75467   0.0000000000
C          C       0.91166   0.42273   0.76602   0.0000000000
C          C       0.95247   0.44414   0.74153   0.0000000000
C          C       0.70520   0.33393   0.74060   0.0000000000
C          C       0.78033   0.37123   0.76184   0.0000000000
C          C       0.74279   0.33323   0.75326   0.0000000000
H          H       0.74883   0.30739   0.75373   0.0000000000
H          H       0.89346   0.39214   0.76173   0.0000000000
H          H       0.97057   0.42795   0.75091   0.0000000000
O          O       0.62433   0.44151   0.75585   0.0000000000
C          C       0.57839   0.48847   0.75867   0.0000000000
C          C       0.55345   0.50632   0.74753   0.0000000000
C          C       0.66703   0.37239   0.76055   0.0000000000
C          C       0.62711   0.40771   0.75256   0.0000000000
C          C       0.66399   0.40992   0.75332   0.0000000000
H          H       0.68877   0.43724   0.75393   0.0000000000
H          H       0.61004   0.50400   0.75647   0.0000000000
H          H       0.57309   0.54267   0.74799   0.0000000000
O          O       0.56079   0.18533   0.75236   0.0000000000
C          C       0.51170   0.08704   0.74267   0.0000000000
C          C       0.49300   0.04996   0.74663   0.0000000000
C          C       0.63004   0.29619   0.74063   0.0000000000
C          C       0.59542   0.22270   0.75330   0.0000000000
C          C       0.58985   0.25600   0.74621   0.0000000000
H          H       0.56142   0.25378   0.75072   0.0000000000
H          H       0.49354   0.10297   0.75026   0.0000000000
H          H       0.45689   0.03241   0.74825   0.0000000000
O          O       0.18256   0.62532   0.75316   0.0000000000
C          C       0.08971   0.57689   0.75457   0.0000000000
C          C       0.04568   0.55411   0.74704   0.0000000000
C          C       0.29461   0.66689   0.75184   0.0000000000
C          C       0.22137   0.62786   0.75296   0.0000000000
C          C       0.25843   0.66647   0.72485   0.0000000000
H          H       0.25587   0.69454   0.75993   0.0000000000
H          H       0.10382   0.60909   0.74230   0.0000000000
H          H       0.02912   0.57218   0.76035   0.0000000000
O          O       0.37381   0.55824   0.74875   0.0000000000
C          C       0.42251   0.51178   0.75319   0.0000000000
C          C       0.44634   0.49192   0.74537   0.0000000000
C          C       0.33219   0.62870   0.77040   0.0000000000
C          C       0.37176   0.59203   0.75615   0.0000000000
C          C       0.33625   0.59299   0.73944   0.0000000000
H          H       0.30714   0.56136   0.76095   0.0000000000
H          H       0.39052   0.49594   0.73579   0.0000000000
H          H       0.42701   0.45809   0.75713   0.0000000000
O          O       0.44193   0.81604   0.75328   0.0000000000
C          C       0.48589   0.91036   0.74769   0.0000000000
C          C       0.51028   0.95303   0.75204   0.0000000000
C          C       0.37143   0.70700   0.74739   0.0000000000
C          C       0.40758   0.77630   0.74761   0.0000000000
C          C       0.40807   0.74145   0.74713   0.0000000000
H          H       0.43552   0.74599   0.75343   0.0000000000
H          H       0.50648   0.89644   0.74820   0.0000000000
H          H       0.54283   0.97034   0.74407   0.0000000000
O          O       0.37416   0.81696   0.75042   0.0000000000
C          C       0.42293   0.91169   0.74235   0.0000000000
C          C       0.44334   0.95452   0.73476   0.0000000000
C          C       0.33412   0.70454   0.75721   0.0000000000
C          C       0.37162   0.77968   0.75145   0.0000000000
C          C       0.33550   0.74405   0.73900   0.0000000000
H          H       0.30417   0.74565   0.74711   0.0000000000
H          H       0.39243   0.89657   0.75423   0.0000000000
H          H       0.42707   0.96835   0.75134   0.0000000000
O          O       0.44074   0.62518   0.75485   0.0000000000
C          C       0.48802   0.57526   0.75780   0.0000000000
C          C       0.50960   0.55655   0.74062   0.0000000000
C          C       0.37235   0.66741   0.75487   0.0000000000
C          C       0.40668   0.62950   0.75403   0.0000000000
C          C       0.40628   0.66365   0.74540   0.0000000000
H          H       0.43968   0.69382   0.75764   0.0000000000
H          H       0.50419   0.60771   0.74684   0.0000000000
H          H       0.54355   0.57373   0.74383   0.0000000000
O          O       0.18105   0.55639   0.73288   0.0000000000
C          C       0.08793   0.50968   0.75152   0.0000000000
C          C       0.04814   0.48914   0.74213   0.0000000000
C          C       0.29629   0.62885   0.75956   0.0000000000
C          C       0.22176   0.59377   0.74822   0.0000000000
C          C       0.25687   0.59384   0.75550   0.0000000000
H          H       0.25212   0.55908   0.75435   0.0000000000
H          H       0.10365   0.49745   0.75081   0.0000000000
H          H       0.03019   0.45795   0.74548   0.0000000000
O          O       0.62555   0.18219   0.73747   0.0000000000
C          C       0.57704   0.09027   0.73672   0.0000000000
C          C       0.55629   0.04399   0.74781   0.0000000000
C          C       0.66645   0.29677   0.76194   0.0000000000
C          C       0.62729   0.22333   0.74023   0.0000000000
C          C       0.66575   0.25541   0.75937   0.0000000000
H          H       0.69083   0.25003   0.74486   0.0000000000
H          H       0.60735   0.10437   0.74718   0.0000000000
H          H       0.57173   0.03209   0.75368   0.0000000000
O          O       0.56079   0.37724   0.73504   0.0000000000
C          C       0.51213   0.42532   0.75019   0.0000000000
C          C       0.49144   0.44361   0.74903   0.0000000000
C          C       0.63079   0.33166   0.75640   0.0000000000
C          C       0.59258   0.37146   0.74886   0.0000000000
C          C       0.59413   0.33694   0.73793   0.0000000000
H          H       0.55945   0.30507   0.76790   0.0000000000
H          H       0.49530   0.38973   0.74591   0.0000000000
H          H       0.46102   0.42718   0.73114   0.0000000000
O          O       0.81862   0.44255   0.76402   0.0000000000
C          C       0.90993   0.48627   0.75069   0.0000000000
C          C       0.95518   0.51036   0.74549   0.0000000000
C          C       0.70714   0.37112   0.75222   0.0000000000
C          C       0.78034   0.40967   0.72967   0.0000000000
C          C       0.74298   0.41046   0.74841   0.0000000000
H          H       0.74627   0.43905   0.75446   0.0000000000
H          H       0.89410   0.50218   0.74868   0.0000000000
H          H       0.96719   0.53950   0.74480   0.0000000000
