data_crystal
 
_cell_length_a    22.73310
_cell_length_b    22.73310
_cell_length_c    6.95280
_cell_angle_alpha 90.00000
_cell_angle_beta  90.00000
_cell_angle_gamma 120.00000
 
_symmetry_space_group_name_Hall 'P 1'
_symmetry_space_group_name_H-M  'P 1'
 
loop_
_symmetry_equiv_pos_as_xyz
 'x,y,z' 
 
loop_
_atom_site_label
_atom_site_type_symbol
_atom_site_fract_x
_atom_site_fract_y
_atom_site_fract_z
_atom_site_charge
B          B       0.47897   0.95943   0.24460   0.0000000000
B          B       0.04117   0.51947   0.25746   0.0000000000
B          B       0.47742   0.52329   0.24747   0.0000000000
O          O       0.08405   0.48981   0.24599   0.0000000000
C          C       0.92303   0.40905   0.25219   0.0000000000
C          C       0.85582   0.37311   0.25386   0.0000000000
C          C       0.26727   0.60323   0.25117   0.0000000000
C          C       0.14218   0.54254   0.26329   0.0000000000
C          C       0.20930   0.54464   0.24436   0.0000000000
H          H       0.19788   0.48959   0.24516   0.0000000000
H          H       0.94890   0.37535   0.24707   0.0000000000
H          H       0.82366   0.31455   0.25586   0.0000000000
O          O       0.51815   0.59971   0.24482   0.0000000000
C          C       0.59412   0.51957   0.25441   0.0000000000
C          C       0.63266   0.48641   0.23175   0.0000000000
C          C       0.39636   0.66935   0.25892   0.0000000000
C          C       0.45447   0.60320   0.25277   0.0000000000
C          C       0.46303   0.66797   0.24375   0.0000000000
H          H       0.50936   0.70982   0.25763   0.0000000000
H          H       0.62064   0.57491   0.25081   0.0000000000
H          H       0.68325   0.51145   0.23794   0.0000000000
O          O       0.40445   0.91630   0.23986   0.0000000000
C          C       0.48043   0.07517   0.26054   0.0000000000
C          C       0.51496   0.14652   0.25168   0.0000000000
C          C       0.33409   0.73134   0.24142   0.0000000000
C          C       0.39795   0.85482   0.25215   0.0000000000
C          C       0.32891   0.79101   0.24416   0.0000000000
H          H       0.29510   0.79792   0.25369   0.0000000000
H          H       0.42658   0.04798   0.25601   0.0000000000
H          H       0.48926   0.17228   0.23886   0.0000000000
O          O       0.51565   0.91905   0.25289   0.0000000000
C          C       0.59447   0.07676   0.24401   0.0000000000
C          C       0.63015   0.14642   0.25411   0.0000000000
C          C       0.39321   0.72824   0.26006   0.0000000000
C          C       0.45375   0.85571   0.25514   0.0000000000
C          C       0.45800   0.79333   0.24548   0.0000000000
H          H       0.50544   0.79515   0.24891   0.0000000000
H          H       0.62330   0.04564   0.24658   0.0000000000
H          H       0.68333   0.16718   0.25120   0.0000000000
O          O       0.40372   0.48659   0.24922   0.0000000000
C          C       0.48416   0.40982   0.25641   0.0000000000
C          C       0.51554   0.37382   0.25017   0.0000000000
C          C       0.33727   0.60235   0.23424   0.0000000000
C          C       0.39468   0.54377   0.23631   0.0000000000
C          C       0.32945   0.54408   0.26166   0.0000000000
H          H       0.29197   0.49490   0.24620   0.0000000000
H          H       0.42620   0.37992   0.25030   0.0000000000
H          H       0.48814   0.31966   0.25683   0.0000000000
O          O       0.08397   0.59477   0.24631   0.0000000000
C          C       0.92450   0.52275   0.24714   0.0000000000
C          C       0.85122   0.48112   0.24982   0.0000000000
C          C       0.26708   0.66337   0.25875   0.0000000000
C          C       0.14520   0.60299   0.24898   0.0000000000
C          C       0.20815   0.66582   0.23545   0.0000000000
H          H       0.19968   0.70840   0.25438   0.0000000000
H          H       0.94871   0.57280   0.24472   0.0000000000
H          H       0.82735   0.51209   0.25013   0.0000000000
C          C       0.63069   0.26198   0.24408   0.0000000000
C          C       0.52363   0.04102   0.24840   0.0000000000
C          C       0.58893   0.18432   0.24581   0.0000000000
C          C       0.73884   0.36697   0.24526   0.0000000000
C          C       0.96460   0.47999   0.24431   0.0000000000
C          C       0.81456   0.41049   0.25214   0.0000000000
C          C       0.63419   0.37299   0.24819   0.0000000000
C          C       0.52004   0.48230   0.25585   0.0000000000
C          C       0.59244   0.41008   0.24760   0.0000000000
C          C       0.59880   0.30012   0.24815   0.0000000000
C          C       0.69730   0.30023   0.23352   0.0000000000
C          C       0.69931   0.40749   0.25335   0.0000000000
H          H       0.73245   0.26830   0.25763   0.0000000000
H          H       0.73199   0.45921   0.25108   0.0000000000
H          H       0.53799   0.26966   0.25471   0.0000000000
B          B       0.47575   0.95652   0.75104   0.0000000000
B          B       0.04564   0.52297   0.74116   0.0000000000
B          B       0.47675   0.52035   0.75012   0.0000000000
O          O       0.08429   0.48698   0.74943   0.0000000000
C          C       0.92283   0.40527   0.75753   0.0000000000
C          C       0.85225   0.36945   0.75603   0.0000000000
C          C       0.26851   0.60527   0.74815   0.0000000000
C          C       0.14570   0.54306   0.75227   0.0000000000
C          C       0.20517   0.54275   0.74617   0.0000000000
H          H       0.19933   0.49252   0.74471   0.0000000000
H          H       0.94943   0.37854   0.74275   0.0000000000
H          H       0.82776   0.31734   0.75131   0.0000000000
O          O       0.51084   0.59426   0.75224   0.0000000000
C          C       0.59133   0.51494   0.75835   0.0000000000
C          C       0.63306   0.48817   0.73794   0.0000000000
C          C       0.39785   0.66983   0.75247   0.0000000000
C          C       0.45163   0.59905   0.75262   0.0000000000
C          C       0.45943   0.66394   0.75921   0.0000000000
H          H       0.50522   0.70521   0.74718   0.0000000000
H          H       0.62060   0.57352   0.76263   0.0000000000
H          H       0.68766   0.51165   0.76591   0.0000000000
O          O       0.40299   0.91622   0.75473   0.0000000000
C          C       0.48048   0.07415   0.74580   0.0000000000
C          C       0.51307   0.14025   0.75157   0.0000000000
C          C       0.33278   0.73141   0.74921   0.0000000000
C          C       0.39596   0.85783   0.74056   0.0000000000
C          C       0.33534   0.79172   0.73379   0.0000000000
H          H       0.29406   0.80159   0.74489   0.0000000000
H          H       0.43091   0.04636   0.76249   0.0000000000
H          H       0.48840   0.17077   0.75287   0.0000000000
O          O       0.51029   0.91861   0.75727   0.0000000000
C          C       0.59674   0.07485   0.75417   0.0000000000
C          C       0.63007   0.14538   0.74699   0.0000000000
C          C       0.39530   0.72613   0.74783   0.0000000000
C          C       0.45857   0.85382   0.76974   0.0000000000
C          C       0.45739   0.79134   0.75148   0.0000000000
H          H       0.50769   0.79618   0.76615   0.0000000000
H          H       0.62578   0.05103   0.74518   0.0000000000
H          H       0.68484   0.17027   0.75502   0.0000000000
O          O       0.40312   0.48427   0.73416   0.0000000000
C          C       0.47977   0.40543   0.74695   0.0000000000
C          C       0.51348   0.36550   0.75329   0.0000000000
C          C       0.33198   0.60528   0.74982   0.0000000000
C          C       0.40003   0.54720   0.75076   0.0000000000
C          C       0.33706   0.54519   0.76072   0.0000000000
H          H       0.29066   0.49503   0.75433   0.0000000000
H          H       0.42971   0.37476   0.74451   0.0000000000
H          H       0.48482   0.31520   0.73414   0.0000000000
O          O       0.08506   0.59879   0.76168   0.0000000000
C          C       0.92500   0.51679   0.74245   0.0000000000
C          C       0.85287   0.48436   0.75374   0.0000000000
C          C       0.27022   0.66722   0.74862   0.0000000000
C          C       0.14333   0.60013   0.74573   0.0000000000
C          C       0.20829   0.66940   0.75668   0.0000000000
H          H       0.19837   0.70966   0.75163   0.0000000000
H          H       0.95430   0.57165   0.74422   0.0000000000
H          H       0.82386   0.51409   0.75873   0.0000000000
C          C       0.62949   0.26311   0.74825   0.0000000000
C          C       0.51781   0.04019   0.76372   0.0000000000
C          C       0.59339   0.18507   0.74514   0.0000000000
C          C       0.73653   0.36690   0.75490   0.0000000000
C          C       0.96547   0.48531   0.74484   0.0000000000
C          C       0.81735   0.40666   0.76999   0.0000000000
C          C       0.62951   0.36801   0.74840   0.0000000000
C          C       0.52043   0.48144   0.74597   0.0000000000
C          C       0.59614   0.41034   0.74380   0.0000000000
C          C       0.59445   0.29395   0.75187   0.0000000000
C          C       0.70023   0.29883   0.73928   0.0000000000
C          C       0.70553   0.41177   0.73918   0.0000000000
H          H       0.72686   0.26897   0.75176   0.0000000000
H          H       0.73040   0.46434   0.73971   0.0000000000
H          H       0.53869   0.26952   0.74798   0.0000000000
