data_crystal
 
_cell_length_a    15.09110
_cell_length_b    15.09110
_cell_length_c    7.19760
_cell_angle_alpha 90.00000
_cell_angle_beta  90.00000
_cell_angle_gamma 120.00000
 
_symmetry_space_group_name_Hall 'P 1'
_symmetry_space_group_name_H-M  'P 1'
 
loop_
_symmetry_equiv_pos_as_xyz
 'x,y,z' 
 
loop_
_atom_site_label
_atom_site_type_symbol
_atom_site_fract_x
_atom_site_fract_y
_atom_site_fract_z
_atom_site_charge
B          B       0.44895   0.55705   0.24464   0.0000000000
C          C       0.38787   0.61626   0.25729   0.0000000000
B          B       0.44615   0.89522   0.25111   0.0000000000
C          C       0.38903   0.77125   0.24710   0.0000000000
B          B       0.10082   0.55139   0.23759   0.0000000000
C          C       0.22866   0.61999   0.25873   0.0000000000
O          O       0.55480   0.95462   0.25005   0.0000000000
C          C       0.66569   0.23786   0.25543   0.0000000000
C          C       0.56612   0.04560   0.25161   0.0000000000
C          C       0.66806   0.14601   0.25310   0.0000000000
H          H       0.72990   0.13114   0.25584   0.0000000000
O          O       0.04567   0.60823   0.26218   0.0000000000
C          C       0.76084   0.43292   0.25408   0.0000000000
C          C       0.95219   0.52424   0.24669   0.0000000000
C          C       0.85695   0.51633   0.24284   0.0000000000
H          H       0.86328   0.59465   0.25367   0.0000000000
O          O       0.39800   0.43724   0.24946   0.0000000000
C          C       0.56868   0.32711   0.26669   0.0000000000
C          C       0.48217   0.43144   0.24905   0.0000000000
C          C       0.47954   0.33559   0.25313   0.0000000000
H          H       0.40594   0.26684   0.25465   0.0000000000
O          O       0.04646   0.43884   0.24788   0.0000000000
C          C       0.76347   0.33667   0.24645   0.0000000000
C          C       0.94940   0.43063   0.25446   0.0000000000
C          C       0.86090   0.33978   0.25032   0.0000000000
H          H       0.86699   0.26749   0.24858   0.0000000000
O          O       0.39986   0.95866   0.26202   0.0000000000
C          C       0.57317   0.24007   0.25052   0.0000000000
C          C       0.47975   0.05334   0.24951   0.0000000000
C          C       0.47306   0.14189   0.25496   0.0000000000
H          H       0.40311   0.13154   0.23536   0.0000000000
O          O       0.56191   0.60825   0.25121   0.0000000000
C          C       0.66557   0.42491   0.24855   0.0000000000
C          C       0.57127   0.52338   0.24200   0.0000000000
C          C       0.66811   0.52446   0.25209   0.0000000000
H          H       0.72662   0.59176   0.25296   0.0000000000
C          C       0.44425   0.72294   0.25340   0.0000000000
C          C       0.27648   0.72126   0.24071   0.0000000000
C          C       0.27690   0.55857   0.24442   0.0000000000
H          H       0.23672   0.47091   0.25226   0.0000000000
H          H       0.51865   0.75723   0.24043   0.0000000000
H          H       0.23637   0.75766   0.25087   0.0000000000
B          B       0.44446   0.54858   0.74359   0.0000000000
C          C       0.39469   0.61556   0.74636   0.0000000000
B          B       0.44396   0.89073   0.77335   0.0000000000
C          C       0.37941   0.76777   0.74940   0.0000000000
B          B       0.10415   0.55274   0.75446   0.0000000000
C          C       0.22539   0.60923   0.74587   0.0000000000
O          O       0.55921   0.95959   0.75069   0.0000000000
C          C       0.65654   0.23247   0.74990   0.0000000000
C          C       0.57536   0.05122   0.75114   0.0000000000
C          C       0.66121   0.14044   0.73755   0.0000000000
H          H       0.73614   0.13700   0.74916   0.0000000000
O          O       0.03733   0.59670   0.74996   0.0000000000
C          C       0.76440   0.42787   0.73899   0.0000000000
C          C       0.94952   0.52057   0.74613   0.0000000000
C          C       0.85359   0.51881   0.75118   0.0000000000
H          H       0.86484   0.59464   0.74005   0.0000000000
O          O       0.39274   0.44131   0.73525   0.0000000000
C          C       0.57567   0.33340   0.75061   0.0000000000
C          C       0.48906   0.43283   0.75207   0.0000000000
C          C       0.47959   0.33912   0.76484   0.0000000000
H          H       0.40082   0.26999   0.74531   0.0000000000
O          O       0.04936   0.44387   0.75732   0.0000000000
C          C       0.76378   0.33267   0.74751   0.0000000000
C          C       0.94664   0.42543   0.75051   0.0000000000
C          C       0.85496   0.33595   0.74212   0.0000000000
H          H       0.87299   0.28060   0.76414   0.0000000000
O          O       0.39762   0.96099   0.75572   0.0000000000
C          C       0.57138   0.23796   0.74243   0.0000000000
C          C       0.48571   0.05416   0.74882   0.0000000000
C          C       0.47961   0.14261   0.74704   0.0000000000
H          H       0.39165   0.13037   0.75437   0.0000000000
O          O       0.56086   0.60760   0.74183   0.0000000000
C          C       0.66048   0.42298   0.75260   0.0000000000
C          C       0.57378   0.51852   0.74550   0.0000000000
C          C       0.66766   0.52047   0.75231   0.0000000000
H          H       0.73267   0.59607   0.74923   0.0000000000
C          C       0.44163   0.71992   0.75570   0.0000000000
C          C       0.27915   0.71799   0.75846   0.0000000000
C          C       0.27614   0.55920   0.74703   0.0000000000
H          H       0.23685   0.47315   0.75227   0.0000000000
H          H       0.52813   0.76739   0.74413   0.0000000000
H          H       0.22660   0.75707   0.74816   0.0000000000
