data_crystal
 
_cell_length_a    27.17710
_cell_length_b    27.17710
_cell_length_c    27.17710
_cell_angle_alpha 90.00000
_cell_angle_beta  90.00000
_cell_angle_gamma 90.00000
 
_symmetry_space_group_name_Hall 'P 1'
_symmetry_space_group_name_H-M  'P 1'
 
loop_
_symmetry_equiv_pos_as_xyz
 'x,y,z' 
 
loop_
_atom_site_label
_atom_site_type_symbol
_atom_site_fract_x
_atom_site_fract_y
_atom_site_fract_z
_atom_site_charge
O          O       0.82809   0.74958   0.30452   0.0000000000
B          B       0.83396   0.71439   0.26025   0.0000000000
C          C       0.90440   0.76720   0.22819   0.0000000000
H          H       0.89852   0.79832   0.25323   0.0000000000
C          C       0.88076   0.72208   0.22829   0.0000000000
C          C       0.93122   0.69538   0.16028   0.0000000000
H          H       0.94195   0.66159   0.13812   0.0000000000
C          C       0.95700   0.73801   0.15804   0.0000000000
C          C       0.89181   0.68354   0.18889   0.0000000000
H          H       0.87496   0.65293   0.19291   0.0000000000
C          C       0.94603   0.77800   0.19262   0.0000000000
H          H       0.96050   0.80876   0.19556   0.0000000000
O          O       0.33076   0.24770   0.80311   0.0000000000
B          B       0.33507   0.20965   0.76218   0.0000000000
C          C       0.40605   0.26560   0.72364   0.0000000000
H          H       0.39637   0.29503   0.75536   0.0000000000
C          C       0.37852   0.22115   0.72548   0.0000000000
C          C       0.42633   0.19368   0.66201   0.0000000000
H          H       0.44038   0.16548   0.63747   0.0000000000
C          C       0.45715   0.23792   0.65948   0.0000000000
C          C       0.39331   0.18435   0.69265   0.0000000000
H          H       0.37587   0.15199   0.69038   0.0000000000
C          C       0.44219   0.27156   0.69699   0.0000000000
H          H       0.46035   0.30899   0.69796   0.0000000000
O          O       0.67048   0.25450   0.80634   0.0000000000
B          B       0.66353   0.28784   0.76248   0.0000000000
C          C       0.59388   0.23425   0.72268   0.0000000000
H          H       0.60316   0.20785   0.75243   0.0000000000
C          C       0.62097   0.27903   0.72326   0.0000000000
C          C       0.56720   0.30464   0.66323   0.0000000000
H          H       0.55798   0.33596   0.63723   0.0000000000
C          C       0.54345   0.26276   0.66128   0.0000000000
C          C       0.60880   0.31836   0.69405   0.0000000000
H          H       0.62554   0.34998   0.69500   0.0000000000
C          C       0.55445   0.22732   0.69633   0.0000000000
H          H       0.53638   0.19202   0.69501   0.0000000000
O          O       0.17236   0.75134   0.30134   0.0000000000
B          B       0.16599   0.78779   0.26244   0.0000000000
C          C       0.09452   0.73404   0.22975   0.0000000000
H          H       0.10713   0.70792   0.24995   0.0000000000
C          C       0.12083   0.77633   0.22880   0.0000000000
C          C       0.06927   0.80766   0.16373   0.0000000000
H          H       0.06348   0.83381   0.13713   0.0000000000
C          C       0.04607   0.76272   0.15709   0.0000000000
C          C       0.10929   0.81582   0.19396   0.0000000000
H          H       0.12714   0.84420   0.19261   0.0000000000
C          C       0.05708   0.72597   0.19220   0.0000000000
H          H       0.03719   0.69224   0.19759   0.0000000000
O          O       0.17192   0.24485   0.19928   0.0000000000
B          B       0.16076   0.21327   0.23563   0.0000000000
C          C       0.09448   0.26591   0.27191   0.0000000000
H          H       0.10465   0.29433   0.24860   0.0000000000
C          C       0.12217   0.21729   0.27355   0.0000000000
C          C       0.06982   0.19298   0.33991   0.0000000000
H          H       0.05791   0.16390   0.36680   0.0000000000
C          C       0.04347   0.23910   0.34044   0.0000000000
C          C       0.10594   0.19057   0.30682   0.0000000000
H          H       0.12780   0.15354   0.30541   0.0000000000
C          C       0.05727   0.27651   0.30438   0.0000000000
H          H       0.03940   0.31118   0.30350   0.0000000000
O          O       0.67086   0.74791   0.69615   0.0000000000
B          B       0.66576   0.71032   0.73436   0.0000000000
C          C       0.59517   0.76749   0.77437   0.0000000000
H          H       0.60805   0.79630   0.75050   0.0000000000
C          C       0.62178   0.72210   0.77385   0.0000000000
C          C       0.56835   0.69601   0.84016   0.0000000000
H          H       0.55840   0.66222   0.86230   0.0000000000
C          C       0.54549   0.73922   0.84055   0.0000000000
C          C       0.60744   0.68877   0.80832   0.0000000000
H          H       0.62513   0.65519   0.80836   0.0000000000
C          C       0.55934   0.77582   0.80233   0.0000000000
H          H       0.53843   0.80891   0.80258   0.0000000000
O          O       0.33016   0.75133   0.69523   0.0000000000
B          B       0.33453   0.78819   0.73852   0.0000000000
C          C       0.40278   0.73472   0.76991   0.0000000000
H          H       0.39598   0.70876   0.74186   0.0000000000
C          C       0.37849   0.77674   0.77186   0.0000000000
C          C       0.43246   0.80484   0.84162   0.0000000000
H          H       0.44303   0.83623   0.86267   0.0000000000
C          C       0.45843   0.75850   0.84019   0.0000000000
C          C       0.39056   0.81414   0.80816   0.0000000000
H          H       0.37393   0.85088   0.80946   0.0000000000
C          C       0.43964   0.72591   0.80449   0.0000000000
H          H       0.46087   0.68972   0.80963   0.0000000000
O          O       0.83072   0.25080   0.19718   0.0000000000
B          B       0.83671   0.28662   0.24087   0.0000000000
C          C       0.90675   0.23445   0.27067   0.0000000000
H          H       0.89728   0.20392   0.24875   0.0000000000
C          C       0.87950   0.27763   0.27328   0.0000000000
C          C       0.92970   0.30808   0.33996   0.0000000000
H          H       0.94129   0.33382   0.36504   0.0000000000
C          C       0.95563   0.26170   0.33707   0.0000000000
C          C       0.89144   0.31078   0.30828   0.0000000000
H          H       0.87293   0.34782   0.30532   0.0000000000
C          C       0.94565   0.22390   0.30775   0.0000000000
H          H       0.96329   0.19047   0.30477   0.0000000000
O          O       0.30370   0.82709   0.74361   0.0000000000
B          B       0.26227   0.83197   0.70973   0.0000000000
C          C       0.22885   0.90504   0.76712   0.0000000000
H          H       0.25216   0.89553   0.79654   0.0000000000
C          C       0.22600   0.87792   0.72204   0.0000000000
C          C       0.16270   0.93145   0.69264   0.0000000000
H          H       0.13578   0.94247   0.66469   0.0000000000
C          C       0.16290   0.95929   0.74074   0.0000000000
C          C       0.19311   0.89677   0.68725   0.0000000000
H          H       0.19134   0.87095   0.65177   0.0000000000
C          C       0.19510   0.94449   0.77741   0.0000000000
H          H       0.19512   0.96299   0.80888   0.0000000000
O          O       0.80222   0.32800   0.24525   0.0000000000
B          B       0.76513   0.33621   0.21238   0.0000000000
C          C       0.72801   0.40421   0.26546   0.0000000000
H          H       0.75597   0.39755   0.29389   0.0000000000
C          C       0.73058   0.37874   0.22190   0.0000000000
C          C       0.65836   0.42966   0.19194   0.0000000000
H          H       0.63395   0.44087   0.16465   0.0000000000
C          C       0.66019   0.45516   0.23782   0.0000000000
C          C       0.69357   0.39268   0.18626   0.0000000000
H          H       0.69149   0.37365   0.14862   0.0000000000
C          C       0.69445   0.44320   0.26954   0.0000000000
H          H       0.69639   0.46175   0.30975   0.0000000000
O          O       0.80328   0.67023   0.25364   0.0000000000
B          B       0.76191   0.66333   0.28945   0.0000000000
C          C       0.72933   0.59471   0.23275   0.0000000000
H          H       0.75436   0.60799   0.20492   0.0000000000
C          C       0.72775   0.62143   0.27737   0.0000000000
C          C       0.66526   0.56919   0.30746   0.0000000000
H          H       0.63934   0.55751   0.33792   0.0000000000
C          C       0.65966   0.54252   0.25942   0.0000000000
C          C       0.69002   0.60677   0.31154   0.0000000000
H          H       0.69076   0.62604   0.34674   0.0000000000
C          C       0.69478   0.55392   0.22405   0.0000000000
H          H       0.69255   0.53752   0.18986   0.0000000000
O          O       0.29982   0.17333   0.75430   0.0000000000
B          B       0.26572   0.16617   0.78598   0.0000000000
C          C       0.22981   0.09280   0.73238   0.0000000000
H          H       0.24900   0.10476   0.70747   0.0000000000
C          C       0.22730   0.12375   0.77587   0.0000000000
C          C       0.16146   0.06698   0.80598   0.0000000000
H          H       0.13991   0.05841   0.83914   0.0000000000
C          C       0.16226   0.04444   0.75860   0.0000000000
C          C       0.19456   0.10872   0.81129   0.0000000000
H          H       0.19091   0.12852   0.85050   0.0000000000
C          C       0.19347   0.05676   0.72545   0.0000000000
H          H       0.19861   0.03739   0.69067   0.0000000000
O          O       0.19707   0.17082   0.24672   0.0000000000
B          B       0.23723   0.16664   0.21456   0.0000000000
C          C       0.27107   0.09600   0.26787   0.0000000000
H          H       0.24695   0.10585   0.29512   0.0000000000
C          C       0.27401   0.11973   0.22126   0.0000000000
C          C       0.33964   0.06597   0.19433   0.0000000000
H          H       0.36110   0.05962   0.16542   0.0000000000
C          C       0.33722   0.04332   0.23953   0.0000000000
C          C       0.30785   0.11042   0.18300   0.0000000000
H          H       0.30603   0.12658   0.15405   0.0000000000
C          C       0.30562   0.05659   0.27237   0.0000000000
H          H       0.30106   0.03887   0.30788   0.0000000000
O          O       0.69667   0.67251   0.74746   0.0000000000
B          B       0.74055   0.66384   0.71445   0.0000000000
C          C       0.77282   0.59405   0.76750   0.0000000000
H          H       0.74782   0.60445   0.79359   0.0000000000
C          C       0.77826   0.62423   0.72263   0.0000000000
C          C       0.83916   0.57022   0.68987   0.0000000000
H          H       0.85756   0.55936   0.66354   0.0000000000
C          C       0.84457   0.54167   0.73776   0.0000000000
C          C       0.80593   0.60579   0.68830   0.0000000000
H          H       0.80761   0.62553   0.65518   0.0000000000
C          C       0.80624   0.55550   0.77487   0.0000000000
H          H       0.80486   0.53510   0.80670   0.0000000000
O          O       0.69671   0.32633   0.75221   0.0000000000
B          B       0.73646   0.33800   0.78758   0.0000000000
C          C       0.77044   0.40526   0.73265   0.0000000000
H          H       0.74223   0.39550   0.70732   0.0000000000
C          C       0.77523   0.37959   0.77870   0.0000000000
C          C       0.83788   0.42975   0.80700   0.0000000000
H          H       0.86484   0.44266   0.83058   0.0000000000
C          C       0.83822   0.45801   0.76377   0.0000000000
C          C       0.80343   0.39287   0.81462   0.0000000000
H          H       0.80336   0.37661   0.85106   0.0000000000
C          C       0.80413   0.44314   0.72637   0.0000000000
H          H       0.80262   0.45967   0.68830   0.0000000000
O          O       0.19576   0.82573   0.25694   0.0000000000
B          B       0.23661   0.83501   0.28776   0.0000000000
C          C       0.27058   0.90329   0.23452   0.0000000000
H          H       0.24578   0.89623   0.20322   0.0000000000
C          C       0.27463   0.87956   0.27745   0.0000000000
C          C       0.34164   0.93235   0.30631   0.0000000000
H          H       0.36197   0.94127   0.33321   0.0000000000
C          C       0.34145   0.95731   0.26284   0.0000000000
C          C       0.30345   0.89236   0.31213   0.0000000000
H          H       0.31026   0.87536   0.34875   0.0000000000
C          C       0.30220   0.94355   0.22962   0.0000000000
H          H       0.30395   0.96263   0.19277   0.0000000000
O          O       0.74741   0.30399   0.83011   0.0000000000
B          B       0.71436   0.26304   0.83696   0.0000000000
C          C       0.76844   0.22374   0.90804   0.0000000000
H          H       0.79222   0.25434   0.89456   0.0000000000
C          C       0.72409   0.22758   0.87749   0.0000000000
C          C       0.69520   0.16237   0.93127   0.0000000000
H          H       0.66415   0.13836   0.94174   0.0000000000
C          C       0.73806   0.16267   0.95565   0.0000000000
C          C       0.68437   0.19365   0.89422   0.0000000000
H          H       0.64848   0.19112   0.87468   0.0000000000
C          C       0.77562   0.19277   0.94394   0.0000000000
H          H       0.80855   0.19655   0.96190   0.0000000000
O          O       0.24310   0.80636   0.32593   0.0000000000
B          B       0.21718   0.75969   0.33389   0.0000000000
C          C       0.26725   0.72936   0.40571   0.0000000000
H          H       0.29727   0.74878   0.39349   0.0000000000
C          C       0.22306   0.72860   0.37895   0.0000000000
C          C       0.19422   0.66099   0.43165   0.0000000000
H          H       0.16233   0.63585   0.44288   0.0000000000
C          C       0.23648   0.65652   0.45862   0.0000000000
C          C       0.18181   0.69391   0.39182   0.0000000000
H          H       0.15423   0.69009   0.37271   0.0000000000
C          C       0.27310   0.69495   0.44437   0.0000000000
H          H       0.31197   0.69391   0.46314   0.0000000000
O          O       0.25351   0.80136   0.67195   0.0000000000
B          B       0.28844   0.76534   0.66776   0.0000000000
C          C       0.23339   0.72736   0.59766   0.0000000000
H          H       0.20688   0.75527   0.60472   0.0000000000
C          C       0.27848   0.72548   0.62126   0.0000000000
C          C       0.30413   0.66107   0.57001   0.0000000000
H          H       0.33396   0.63536   0.55781   0.0000000000
C          C       0.26112   0.66282   0.54380   0.0000000000
C          C       0.31093   0.69349   0.61054   0.0000000000
H          H       0.35088   0.68922   0.62734   0.0000000000
C          C       0.22622   0.69252   0.55275   0.0000000000
H          H       0.19112   0.69837   0.53807   0.0000000000
O          O       0.75168   0.30034   0.17158   0.0000000000
B          B       0.78591   0.26474   0.16645   0.0000000000
C          C       0.73726   0.22732   0.09231   0.0000000000
H          H       0.70429   0.25273   0.10348   0.0000000000
C          C       0.78049   0.22619   0.11876   0.0000000000
C          C       0.80569   0.16312   0.07113   0.0000000000
H          H       0.83591   0.13765   0.06169   0.0000000000
C          C       0.75992   0.16300   0.04244   0.0000000000
C          C       0.81713   0.18889   0.10432   0.0000000000
H          H       0.85095   0.19128   0.12485   0.0000000000
C          C       0.72399   0.19572   0.05460   0.0000000000
H          H       0.68982   0.19316   0.03835   0.0000000000
O          O       0.24403   0.19565   0.17479   0.0000000000
B          B       0.21283   0.23581   0.16504   0.0000000000
C          C       0.26965   0.26993   0.09417   0.0000000000
H          H       0.29516   0.24332   0.10629   0.0000000000
C          C       0.22520   0.27254   0.12269   0.0000000000
C          C       0.19266   0.34075   0.06999   0.0000000000
H          H       0.16532   0.36429   0.05678   0.0000000000
C          C       0.24019   0.34067   0.04422   0.0000000000
C          C       0.18793   0.30646   0.10823   0.0000000000
H          H       0.15343   0.30799   0.12505   0.0000000000
C          C       0.27150   0.30715   0.05505   0.0000000000
H          H       0.30624   0.30539   0.03373   0.0000000000
O          O       0.74995   0.69937   0.67175   0.0000000000
B          B       0.71563   0.73864   0.66482   0.0000000000
C          C       0.77037   0.77168   0.59525   0.0000000000
H          H       0.79711   0.74575   0.60363   0.0000000000
C          C       0.71982   0.77581   0.62014   0.0000000000
C          C       0.69391   0.83853   0.56645   0.0000000000
H          H       0.66043   0.86223   0.56176   0.0000000000
C          C       0.73838   0.84143   0.54529   0.0000000000
C          C       0.68548   0.80733   0.60684   0.0000000000
H          H       0.65300   0.80830   0.62461   0.0000000000
C          C       0.77563   0.80621   0.55968   0.0000000000
H          H       0.80968   0.80276   0.53762   0.0000000000
O          O       0.75390   0.69432   0.32582   0.0000000000
B          B       0.79231   0.73821   0.33727   0.0000000000
C          C       0.73629   0.77634   0.40174   0.0000000000
H          H       0.70380   0.74533   0.39557   0.0000000000
C          C       0.77618   0.77609   0.37807   0.0000000000
C          C       0.80366   0.83860   0.43167   0.0000000000
H          H       0.83611   0.86225   0.43817   0.0000000000
C          C       0.75691   0.83630   0.45775   0.0000000000
C          C       0.81574   0.80421   0.39157   0.0000000000
H          H       0.84517   0.80730   0.37595   0.0000000000
C          C       0.72941   0.80178   0.44389   0.0000000000
H          H       0.68914   0.80157   0.46358   0.0000000000
O          O       0.25296   0.19908   0.82824   0.0000000000
B          B       0.28879   0.24086   0.83781   0.0000000000
C          C       0.23432   0.27326   0.90813   0.0000000000
H          H       0.20589   0.24684   0.89502   0.0000000000
C          C       0.27866   0.27295   0.87811   0.0000000000
C          C       0.30149   0.33853   0.93065   0.0000000000
H          H       0.33591   0.36337   0.94181   0.0000000000
C          C       0.25923   0.34150   0.95448   0.0000000000
C          C       0.31012   0.30662   0.89461   0.0000000000
H          H       0.34671   0.30933   0.87380   0.0000000000
C          C       0.22718   0.30378   0.94026   0.0000000000
H          H       0.19377   0.30654   0.96422   0.0000000000
O          O       0.99919   0.07635   0.55057   0.0000000000
B          B       0.96418   0.08401   0.51096   0.0000000000
C          C       0.01604   0.15680   0.47695   0.0000000000
H          H       0.04342   0.14518   0.50315   0.0000000000
C          C       0.97214   0.13187   0.47790   0.0000000000
C          C       0.94497   0.18358   0.41055   0.0000000000
H          H       0.91427   0.19025   0.38430   0.0000000000
C          C       0.98956   0.20773   0.40898   0.0000000000
C          C       0.93477   0.14197   0.44200   0.0000000000
H          H       0.90320   0.12740   0.44459   0.0000000000
C          C       0.02048   0.19385   0.44578   0.0000000000
H          H       0.05751   0.21204   0.44684   0.0000000000
O          O       0.49514   0.57588   0.05196   0.0000000000
B          B       0.46411   0.58753   0.01132   0.0000000000
C          C       0.51630   0.65454   0.97889   0.0000000000
H          H       0.54572   0.64314   0.00510   0.0000000000
C          C       0.47201   0.63092   0.97806   0.0000000000
C          C       0.44405   0.68422   0.90957   0.0000000000
H          H       0.41303   0.68827   0.88934   0.0000000000
C          C       0.48966   0.70780   0.90969   0.0000000000
C          C       0.43737   0.64306   0.94016   0.0000000000
H          H       0.40572   0.62527   0.94257   0.0000000000
C          C       0.52260   0.69416   0.94724   0.0000000000
H          H       0.55736   0.71114   0.94612   0.0000000000
O          O       0.50352   0.92078   0.05316   0.0000000000
B          B       0.53398   0.91409   0.01260   0.0000000000
C          C       0.48325   0.84568   0.97514   0.0000000000
H          H       0.45624   0.85439   0.00261   0.0000000000
C          C       0.52634   0.87022   0.97482   0.0000000000
C          C       0.55768   0.82087   0.91010   0.0000000000
H          H       0.58481   0.80696   0.88993   0.0000000000
C          C       0.51108   0.79010   0.90907   0.0000000000
C          C       0.56511   0.85576   0.94332   0.0000000000
H          H       0.59852   0.87865   0.94355   0.0000000000
C          C       0.47468   0.80803   0.94573   0.0000000000
H          H       0.44147   0.78669   0.94526   0.0000000000
O          O       0.00230   0.41954   0.55560   0.0000000000
B          B       0.03882   0.41527   0.51039   0.0000000000
C          C       0.98111   0.34659   0.47422   0.0000000000
H          H       0.95358   0.35572   0.50350   0.0000000000
C          C       0.02856   0.37092   0.47454   0.0000000000
C          C       0.05269   0.31770   0.40731   0.0000000000
H          H       0.08362   0.30872   0.38633   0.0000000000
C          C       0.00731   0.29656   0.40850   0.0000000000
C          C       0.06176   0.35953   0.43712   0.0000000000
H          H       0.10098   0.37281   0.44316   0.0000000000
C          C       0.97676   0.30833   0.44618   0.0000000000
H          H       0.94342   0.28667   0.44588   0.0000000000
O          O       0.49734   0.41869   0.44730   0.0000000000
B          B       0.46515   0.41542   0.48871   0.0000000000
C          C       0.51593   0.34645   0.52408   0.0000000000
H          H       0.54268   0.35594   0.49591   0.0000000000
C          C       0.47120   0.37125   0.52689   0.0000000000
C          C       0.44414   0.31972   0.59122   0.0000000000
H          H       0.41639   0.30499   0.61056   0.0000000000
C          C       0.49197   0.29541   0.59063   0.0000000000
C          C       0.43781   0.35783   0.55645   0.0000000000
H          H       0.40054   0.37789   0.55910   0.0000000000
C          C       0.52631   0.30677   0.55703   0.0000000000
H          H       0.55804   0.28708   0.55591   0.0000000000
O          O       0.99673   0.92029   0.94632   0.0000000000
B          B       0.96062   0.91186   0.98593   0.0000000000
C          C       0.01546   0.84614   0.02039   0.0000000000
H          H       0.04610   0.85001   0.99693   0.0000000000
C          C       0.97370   0.87155   0.02406   0.0000000000
C          C       0.94088   0.81699   0.09095   0.0000000000
H          H       0.91246   0.81102   0.11128   0.0000000000
C          C       0.98725   0.79246   0.08839   0.0000000000
C          C       0.93446   0.85682   0.05620   0.0000000000
H          H       0.90286   0.87609   0.05867   0.0000000000
C          C       0.02319   0.80801   0.05739   0.0000000000
H          H       0.05777   0.78873   0.05695   0.0000000000
O          O       0.00256   0.57720   0.94576   0.0000000000
B          B       0.03774   0.58633   0.98993   0.0000000000
C          C       0.98348   0.65523   0.01953   0.0000000000
H          H       0.95462   0.64559   0.99869   0.0000000000
C          C       0.02957   0.63118   0.02232   0.0000000000
C          C       0.05640   0.68220   0.09148   0.0000000000
H          H       0.08840   0.69070   0.11315   0.0000000000
C          C       0.00975   0.70512   0.09134   0.0000000000
C          C       0.06308   0.64057   0.05927   0.0000000000
H          H       0.09626   0.62362   0.06211   0.0000000000
C          C       0.98018   0.69205   0.05640   0.0000000000
H          H       0.93974   0.71247   0.05578   0.0000000000
O          O       0.50210   0.07680   0.44563   0.0000000000
B          B       0.53930   0.08328   0.48880   0.0000000000
C          C       0.48539   0.15783   0.52066   0.0000000000
H          H       0.45344   0.14635   0.49513   0.0000000000
C          C       0.52935   0.13103   0.52366   0.0000000000
C          C       0.55356   0.18145   0.59004   0.0000000000
H          H       0.58612   0.18847   0.60925   0.0000000000
C          C       0.50950   0.20690   0.58737   0.0000000000
C          C       0.55924   0.14321   0.55609   0.0000000000
H          H       0.60051   0.12775   0.55764   0.0000000000
C          C       0.47939   0.19005   0.55102   0.0000000000
H          H       0.44197   0.21148   0.55267   0.0000000000
O          O       0.07860   0.55018   0.99812   0.0000000000
B          B       0.08432   0.51081   0.96518   0.0000000000
C          C       0.15379   0.47579   0.01357   0.0000000000
H          H       0.14256   0.50198   0.04488   0.0000000000
C          C       0.12818   0.47747   0.97209   0.0000000000
C          C       0.18522   0.40749   0.94638   0.0000000000
H          H       0.19205   0.38918   0.91580   0.0000000000
C          C       0.20696   0.41025   0.98742   0.0000000000
C          C       0.14145   0.44124   0.93760   0.0000000000
H          H       0.12546   0.44396   0.90164   0.0000000000
C          C       0.19302   0.44882   0.02522   0.0000000000
H          H       0.20826   0.44616   0.05796   0.0000000000
O          O       0.57671   0.05144   0.49363   0.0000000000
B          B       0.58526   0.01131   0.46236   0.0000000000
C          C       0.65363   0.97485   0.51800   0.0000000000
H          H       0.64609   0.00544   0.54532   0.0000000000
C          C       0.62623   0.97275   0.47350   0.0000000000
C          C       0.67926   0.91076   0.44434   0.0000000000
H          H       0.69128   0.88886   0.41750   0.0000000000
C          C       0.70558   0.90910   0.48702   0.0000000000
C          C       0.64299   0.94143   0.43692   0.0000000000
H          H       0.62566   0.94280   0.40530   0.0000000000
C          C       0.69466   0.94450   0.52498   0.0000000000
H          H       0.71031   0.94609   0.55906   0.0000000000
O          O       0.92361   0.05421   0.50088   0.0000000000
B          B       0.91392   0.01097   0.53662   0.0000000000
C          C       0.84604   0.97948   0.48128   0.0000000000
H          H       0.85341   0.00341   0.45563   0.0000000000
C          C       0.87169   0.97757   0.52930   0.0000000000
C          C       0.81820   0.91019   0.55876   0.0000000000
H          H       0.80885   0.88928   0.58618   0.0000000000
C          C       0.78996   0.90928   0.51025   0.0000000000
C          C       0.85699   0.94420   0.56338   0.0000000000
H          H       0.87525   0.94415   0.59744   0.0000000000
C          C       0.80494   0.94489   0.47563   0.0000000000
H          H       0.78867   0.94761   0.44125   0.0000000000
O          O       0.42271   0.55452   0.00264   0.0000000000
B          B       0.41828   0.51460   0.03926   0.0000000000
C          C       0.34302   0.47822   0.98308   0.0000000000
H          H       0.35360   0.50406   0.95883   0.0000000000
C          C       0.36933   0.47413   0.02914   0.0000000000
C          C       0.32024   0.41083   0.05610   0.0000000000
H          H       0.30997   0.38743   0.08788   0.0000000000
C          C       0.29519   0.40917   0.01018   0.0000000000
C          C       0.35750   0.44377   0.06643   0.0000000000
H          H       0.37727   0.43860   0.10004   0.0000000000
C          C       0.30614   0.44397   0.97508   0.0000000000
H          H       0.28719   0.44519   0.94114   0.0000000000
O          O       0.42165   0.44868   0.49676   0.0000000000
B          B       0.41351   0.48437   0.45966   0.0000000000
C          C       0.34563   0.52281   0.51461   0.0000000000
H          H       0.35509   0.49877   0.54268   0.0000000000
C          C       0.37366   0.52344   0.47074   0.0000000000
C          C       0.32064   0.58928   0.44557   0.0000000000
H          H       0.30564   0.61418   0.41479   0.0000000000
C          C       0.29266   0.58962   0.48678   0.0000000000
C          C       0.35643   0.55655   0.43735   0.0000000000
H          H       0.37288   0.55894   0.40256   0.0000000000
C          C       0.30441   0.55499   0.52479   0.0000000000
H          H       0.28532   0.55773   0.55513   0.0000000000
O          O       0.92277   0.94449   0.99659   0.0000000000
B          B       0.91662   0.98718   0.95968   0.0000000000
C          C       0.84386   0.02096   0.01588   0.0000000000
H          H       0.85558   0.99754   0.04417   0.0000000000
C          C       0.87157   0.02594   0.97015   0.0000000000
C          C       0.81897   0.09095   0.94296   0.0000000000
H          H       0.80534   0.11257   0.91285   0.0000000000
C          C       0.79199   0.09084   0.98955   0.0000000000
C          C       0.85793   0.05880   0.93490   0.0000000000
H          H       0.87647   0.05726   0.90092   0.0000000000
C          C       0.80895   0.05550   0.02138   0.0000000000
H          H       0.78676   0.05161   0.05967   0.0000000000
O          O       0.57251   0.94895   0.00293   0.0000000000
B          B       0.58692   0.98803   0.03789   0.0000000000
C          C       0.65454   0.02307   0.98443   0.0000000000
H          H       0.64696   0.99625   0.95428   0.0000000000
C          C       0.62941   0.02456   0.02649   0.0000000000
C          C       0.68146   0.08710   0.05447   0.0000000000
H          H       0.69602   0.11338   0.08287   0.0000000000
C          C       0.70147   0.08958   0.00906   0.0000000000
C          C       0.64235   0.05757   0.06463   0.0000000000
H          H       0.62338   0.05831   0.09849   0.0000000000
C          C       0.69129   0.05322   0.97514   0.0000000000
H          H       0.71379   0.05334   0.94060   0.0000000000
O          O       0.08124   0.44254   0.50306   0.0000000000
B          B       0.08183   0.48744   0.53453   0.0000000000
C          C       0.15269   0.52292   0.48278   0.0000000000
H          H       0.14439   0.49464   0.46030   0.0000000000
C          C       0.12915   0.52557   0.52866   0.0000000000
C          C       0.18155   0.59368   0.55372   0.0000000000
H          H       0.19071   0.61539   0.58555   0.0000000000
C          C       0.20571   0.59237   0.51037   0.0000000000
C          C       0.14587   0.55692   0.56553   0.0000000000
H          H       0.12218   0.55606   0.59955   0.0000000000
C          C       0.19159   0.55458   0.47441   0.0000000000
H          H       0.21204   0.55307   0.43956   0.0000000000
O          O       0.55336   0.99352   0.07701   0.0000000000
B          B       0.51005   0.96328   0.08687   0.0000000000
C          C       0.47978   0.01781   0.15579   0.0000000000
H          H       0.50501   0.04598   0.14645   0.0000000000
C          C       0.47677   0.97228   0.13098   0.0000000000
C          C       0.41460   0.95029   0.18439   0.0000000000
H          H       0.38792   0.91669   0.19247   0.0000000000
C          C       0.41138   0.98828   0.20730   0.0000000000
C          C       0.44205   0.93719   0.14208   0.0000000000
H          H       0.44445   0.89914   0.12328   0.0000000000
C          C       0.44104   0.02690   0.19187   0.0000000000
H          H       0.44602   0.05903   0.20833   0.0000000000
O          O       0.05206   0.49918   0.58008   0.0000000000
B          B       0.01333   0.46760   0.58421   0.0000000000
C          C       0.97986   0.51956   0.65260   0.0000000000
H          H       0.00609   0.54512   0.64277   0.0000000000
C          C       0.97550   0.47546   0.62526   0.0000000000
C          C       0.91145   0.44175   0.68398   0.0000000000
H          H       0.88645   0.41485   0.68934   0.0000000000
C          C       0.90987   0.48860   0.70696   0.0000000000
C          C       0.94335   0.43638   0.64168   0.0000000000
H          H       0.94202   0.40021   0.62559   0.0000000000
C          C       0.94565   0.52765   0.69543   0.0000000000
H          H       0.94358   0.55671   0.71112   0.0000000000
O          O       0.05290   0.50089   0.92349   0.0000000000
B          B       0.00814   0.53723   0.91774   0.0000000000
C          C       0.97684   0.48464   0.84391   0.0000000000
H          H       0.00275   0.45623   0.85116   0.0000000000
C          C       0.97750   0.52907   0.87321   0.0000000000
C          C       0.90567   0.55707   0.82054   0.0000000000
H          H       0.88625   0.58551   0.80675   0.0000000000
C          C       0.90958   0.51158   0.79127   0.0000000000
C          C       0.94138   0.56463   0.86082   0.0000000000
H          H       0.94133   0.59829   0.87709   0.0000000000
C          C       0.94552   0.47668   0.81145   0.0000000000
H          H       0.94570   0.44258   0.78805   0.0000000000
O          O       0.55342   0.00659   0.42280   0.0000000000
B          B       0.51274   0.03619   0.41224   0.0000000000
C          C       0.47431   0.98311   0.34297   0.0000000000
H          H       0.50244   0.95541   0.35364   0.0000000000
C          C       0.47554   0.02831   0.37231   0.0000000000
C          C       0.40973   0.05670   0.32015   0.0000000000
H          H       0.38571   0.08801   0.30815   0.0000000000
C          C       0.40549   0.00744   0.29005   0.0000000000
C          C       0.43996   0.06675   0.36201   0.0000000000
H          H       0.44063   0.09865   0.37866   0.0000000000
C          C       0.44471   0.97508   0.30636   0.0000000000
H          H       0.44320   0.93972   0.28731   0.0000000000
O          O       0.45001   0.49859   0.42596   0.0000000000
B          B       0.48712   0.46421   0.41605   0.0000000000
C          C       0.52524   0.51594   0.34633   0.0000000000
H          H       0.49659   0.54474   0.35117   0.0000000000
C          C       0.52398   0.47015   0.37238   0.0000000000
C          C       0.59102   0.44209   0.31808   0.0000000000
H          H       0.61048   0.41503   0.30944   0.0000000000
C          C       0.58922   0.48863   0.29653   0.0000000000
C          C       0.55716   0.43728   0.35697   0.0000000000
H          H       0.55662   0.39697   0.37475   0.0000000000
C          C       0.55668   0.52407   0.30653   0.0000000000
H          H       0.55111   0.55936   0.28886   0.0000000000
O          O       0.94840   0.99582   0.92148   0.0000000000
B          B       0.98851   0.96134   0.91339   0.0000000000
C          C       0.02369   0.01616   0.84681   0.0000000000
H          H       0.99687   0.04437   0.85489   0.0000000000
C          C       0.02331   0.97043   0.86969   0.0000000000
C          C       0.08760   0.94519   0.81966   0.0000000000
H          H       0.11079   0.91249   0.80693   0.0000000000
C          C       0.09284   0.98961   0.79415   0.0000000000
C          C       0.05543   0.93694   0.85757   0.0000000000
H          H       0.06032   0.90533   0.87578   0.0000000000
C          C       0.05666   0.02569   0.80652   0.0000000000
H          H       0.05299   0.06292   0.78713   0.0000000000
O          O       0.94832   0.00249   0.57519   0.0000000000
B          B       0.98680   0.03631   0.58466   0.0000000000
C          C       0.02515   0.98419   0.65574   0.0000000000
H          H       0.99348   0.95702   0.64670   0.0000000000
C          C       0.02236   0.02747   0.62879   0.0000000000
C          C       0.09081   0.05628   0.68100   0.0000000000
H          H       0.11215   0.08566   0.69125   0.0000000000
C          C       0.09087   0.01019   0.70677   0.0000000000
C          C       0.05888   0.06217   0.64463   0.0000000000
H          H       0.06019   0.09792   0.62734   0.0000000000
C          C       0.05977   0.97377   0.69298   0.0000000000
H          H       0.05509   0.94308   0.71148   0.0000000000
O          O       0.44696   0.50450   0.07918   0.0000000000
B          B       0.48649   0.53759   0.08361   0.0000000000
C          C       0.52360   0.48217   0.15137   0.0000000000
H          H       0.49380   0.45302   0.14339   0.0000000000
C          C       0.52104   0.53091   0.12967   0.0000000000
C          C       0.58823   0.55267   0.17917   0.0000000000
H          H       0.61547   0.58760   0.18961   0.0000000000
C          C       0.59031   0.50997   0.20581   0.0000000000
C          C       0.55631   0.56632   0.14430   0.0000000000
H          H       0.55718   0.59776   0.12234   0.0000000000
C          C       0.55262   0.47415   0.19202   0.0000000000
H          H       0.55148   0.44256   0.21342   0.0000000000
C          C      -0.00020   0.74770   0.12350   0.0000000000
C          C       0.50192   0.25050   0.62431   0.0000000000
C          C      -0.00265   0.25036   0.37276   0.0000000000
C          C       0.49817   0.74898   0.87458   0.0000000000
C          C       0.12070   0.00252   0.74898   0.0000000000
C          C       0.62130   0.50160   0.24686   0.0000000000
C          C       0.37706   0.00064   0.25049   0.0000000000
C          C       0.87291   0.49666   0.74892   0.0000000000
C          C       0.74640   0.12579  -0.00053   0.0000000000
C          C       0.24943   0.62295   0.49959   0.0000000000
C          C       0.24854   0.37581  -0.00069   0.0000000000
C          C       0.74944   0.87636   0.50400   0.0000000000
