data_crystal
 
_cell_length_a    30.10510
_cell_length_b    30.10510
_cell_length_c    30.10510
_cell_angle_alpha 90.00000
_cell_angle_beta  90.00000
_cell_angle_gamma 90.00000
 
_symmetry_space_group_name_Hall 'P 1'
_symmetry_space_group_name_H-M  'P 1'
 
loop_
_symmetry_equiv_pos_as_xyz
 'x,y,z' 
 
loop_
_atom_site_label
_atom_site_type_symbol
_atom_site_fract_x
_atom_site_fract_y
_atom_site_fract_z
_atom_site_charge
C          C       0.69726   0.60533   0.23403   0.0000000000
C          C       0.65525   0.53977   0.25904   0.0000000000
B          B       0.75331   0.64607   0.28364   0.0000000000
O          O       0.76044   0.67918   0.24607   0.0000000000
C          C       0.67913   0.53930   0.29955   0.0000000000
C          C       0.71895   0.60915   0.27240   0.0000000000
C          C       0.71330   0.57395   0.30438   0.0000000000
O          O       0.77666   0.64918   0.32586   0.0000000000
C          C       0.74612   0.76900   0.18049   0.0000000000
C          C       0.86576   0.58828   0.34584   0.0000000000
H          H       0.72250   0.79166   0.15640   0.0000000000
H          H       0.77458   0.78154   0.17951   0.0000000000
H          H       0.74293   0.73169   0.16699   0.0000000000
H          H       0.88625   0.56461   0.36134   0.0000000000
H          H       0.83145   0.57347   0.34291   0.0000000000
H          H       0.87857   0.58594   0.31120   0.0000000000
H          H       0.67767   0.51667   0.32108   0.0000000000
H          H       0.65316   0.57095   0.19382   0.0000000000
H          H       0.72675   0.57446   0.33497   0.0000000000
H          H       0.70528   0.62792   0.20830   0.0000000000
C          C       0.47800   0.18051   0.58345   0.0000000000
C          C       0.19702   0.10565   0.73194   0.0000000000
C          C       0.15778   0.03797   0.75945   0.0000000000
B          B       0.25365   0.14625   0.78326   0.0000000000
O          O       0.26085   0.17668   0.74817   0.0000000000
C          C       0.18198   0.03854   0.80184   0.0000000000
C          C       0.21812   0.10795   0.77665   0.0000000000
C          C       0.20890   0.07288   0.80469   0.0000000000
O          O       0.27407   0.15025   0.82811   0.0000000000
C          C       0.24256   0.26509   0.68254   0.0000000000
C          C       0.36448   0.08926   0.84491   0.0000000000
H          H       0.22403   0.29038   0.65933   0.0000000000
H          H       0.27632   0.27812   0.67720   0.0000000000
H          H       0.24275   0.23232   0.66633   0.0000000000
H          H       0.38688   0.06730   0.86651   0.0000000000
H          H       0.33231   0.07057   0.84739   0.0000000000
H          H       0.37782   0.08534   0.81380   0.0000000000
H          H       0.17810   0.01263   0.82309   0.0000000000
H          H       0.15109   0.07164   0.69233   0.0000000000
H          H       0.22894   0.07494   0.83729   0.0000000000
H          H       0.20146   0.13023   0.70720   0.0000000000
C          C       0.97621   0.67994   0.08342   0.0000000000
C          C       0.79997   0.39198   0.73272   0.0000000000
C          C       0.84243   0.46200   0.75935   0.0000000000
B          B       0.74682   0.35475   0.78309   0.0000000000
O          O       0.73917   0.32004   0.74898   0.0000000000
C          C       0.81903   0.45773   0.80002   0.0000000000
C          C       0.77957   0.39021   0.77270   0.0000000000
C          C       0.78752   0.42438   0.80526   0.0000000000
O          O       0.72501   0.35454   0.82700   0.0000000000
C          C       0.75457   0.23217   0.68062   0.0000000000
C          C       0.63644   0.41186   0.84541   0.0000000000
H          H       0.77514   0.21185   0.65780   0.0000000000
H          H       0.72332   0.21940   0.67803   0.0000000000
H          H       0.75568   0.26538   0.66700   0.0000000000
H          H       0.61326   0.43619   0.86308   0.0000000000
H          H       0.66902   0.42529   0.84495   0.0000000000
H          H       0.62128   0.41243   0.81238   0.0000000000
H          H       0.82068   0.48279   0.82594   0.0000000000
H          H       0.84723   0.43051   0.69454   0.0000000000
H          H       0.76765   0.42399   0.83776   0.0000000000
H          H       0.79676   0.36776   0.70980   0.0000000000
C          C       0.02457   0.81743   0.08397   0.0000000000
C          C       0.30236   0.89461   0.23432   0.0000000000
C          C       0.34537   0.96232   0.26116   0.0000000000
B          B       0.24703   0.85355   0.28243   0.0000000000
O          O       0.24060   0.81900   0.24591   0.0000000000
C          C       0.31679   0.95846   0.29760   0.0000000000
C          C       0.28089   0.89275   0.27669   0.0000000000
C          C       0.28654   0.92814   0.30447   0.0000000000
O          O       0.22916   0.85024   0.32577   0.0000000000
C          C       0.25166   0.73490   0.17677   0.0000000000
C          C       0.13767   0.90793   0.34695   0.0000000000
H          H       0.27589   0.71139   0.16106   0.0000000000
H          H       0.22119   0.72131   0.17537   0.0000000000
H          H       0.25868   0.76816   0.17041   0.0000000000
H          H       0.11269   0.93358   0.36541   0.0000000000
H          H       0.16747   0.92492   0.34709   0.0000000000
H          H       0.12118   0.91068   0.31077   0.0000000000
H          H       0.32142   0.98299   0.32590   0.0000000000
H          H       0.35120   0.93084   0.19220   0.0000000000
H          H       0.26934   0.92390   0.33444   0.0000000000
H          H       0.29775   0.87152   0.20680   0.0000000000
C          C       0.52223   0.31764   0.58566   0.0000000000
C          C       0.30270   0.10446   0.26996   0.0000000000
C          C       0.34579   0.04058   0.24148   0.0000000000
B          B       0.24446   0.14903   0.21869   0.0000000000
O          O       0.24053   0.18058   0.25244   0.0000000000
C          C       0.31652   0.04321   0.20284   0.0000000000
C          C       0.28018   0.11041   0.22497   0.0000000000
C          C       0.28967   0.07418   0.19797   0.0000000000
O          O       0.22385   0.14936   0.17422   0.0000000000
C          C       0.25532   0.26593   0.31757   0.0000000000
C          C       0.13292   0.08818   0.15838   0.0000000000
H          H       0.27638   0.29101   0.34178   0.0000000000
H          H       0.22291   0.28025   0.32260   0.0000000000
H          H       0.25950   0.23170   0.33325   0.0000000000
H          H       0.11285   0.06711   0.13497   0.0000000000
H          H       0.16818   0.07266   0.15359   0.0000000000
H          H       0.12119   0.08693   0.18777   0.0000000000
H          H       0.31862   0.01449   0.17700   0.0000000000
H          H       0.34828   0.07344   0.30813   0.0000000000
H          H       0.26978   0.07582   0.16345   0.0000000000
H          H       0.29575   0.13154   0.29220   0.0000000000
C          C       0.52382   0.68259   0.91573   0.0000000000
C          C       0.80209   0.60871   0.76678   0.0000000000
C          C       0.84063   0.53907   0.74035   0.0000000000
B          B       0.74668   0.64852   0.71411   0.0000000000
O          O       0.74136   0.67845   0.75231   0.0000000000
C          C       0.81766   0.54033   0.70278   0.0000000000
C          C       0.78069   0.61085   0.72424   0.0000000000
C          C       0.78783   0.57719   0.69793   0.0000000000
O          O       0.72377   0.64887   0.67227   0.0000000000
C          C       0.75551   0.76860   0.81942   0.0000000000
C          C       0.63540   0.58720   0.65583   0.0000000000
H          H       0.77345   0.78892   0.84147   0.0000000000
H          H       0.71802   0.77710   0.82417   0.0000000000
H          H       0.75816   0.73401   0.82966   0.0000000000
H          H       0.61209   0.56735   0.63486   0.0000000000
H          H       0.66697   0.57251   0.65579   0.0000000000
H          H       0.62252   0.58693   0.69061   0.0000000000
H          H       0.82232   0.51715   0.67657   0.0000000000
H          H       0.84786   0.56870   0.80739   0.0000000000
H          H       0.76765   0.57487   0.66203   0.0000000000
H          H       0.79672   0.63056   0.79410   0.0000000000
C          C       0.02195   0.17889   0.41803   0.0000000000
C          C       0.19574   0.89129   0.76581   0.0000000000
C          C       0.15848   0.95972   0.74129   0.0000000000
B          B       0.24969   0.85256   0.71563   0.0000000000
O          O       0.25784   0.82224   0.75484   0.0000000000
C          C       0.18059   0.96191   0.70193   0.0000000000
C          C       0.21812   0.89168   0.72355   0.0000000000
C          C       0.21363   0.92183   0.69485   0.0000000000
O          O       0.27257   0.85225   0.67363   0.0000000000
C          C       0.24554   0.73263   0.82074   0.0000000000
C          C       0.36404   0.91166   0.65232   0.0000000000
H          H       0.22475   0.70952   0.84168   0.0000000000
H          H       0.27894   0.72025   0.82074   0.0000000000
H          H       0.24097   0.76692   0.83239   0.0000000000
H          H       0.38548   0.93514   0.63128   0.0000000000
H          H       0.33040   0.92462   0.65846   0.0000000000
H          H       0.37707   0.91120   0.68974   0.0000000000
H          H       0.17716   0.98742   0.67782   0.0000000000
H          H       0.14655   0.93017   0.80522   0.0000000000
H          H       0.22754   0.92591   0.66522   0.0000000000
H          H       0.20204   0.86866   0.79404   0.0000000000
C          C       0.97703   0.32047   0.41929   0.0000000000
C          C       0.69593   0.39574   0.26440   0.0000000000
C          C       0.65495   0.45689   0.24180   0.0000000000
B          B       0.75062   0.35409   0.21601   0.0000000000
O          O       0.76012   0.32016   0.25159   0.0000000000
C          C       0.68289   0.46190   0.19996   0.0000000000
C          C       0.71937   0.38930   0.22726   0.0000000000
C          C       0.71278   0.42364   0.19612   0.0000000000
O          O       0.77412   0.35012   0.17268   0.0000000000
C          C       0.74469   0.23393   0.32026   0.0000000000
C          C       0.86465   0.41228   0.15536   0.0000000000
H          H       0.72082   0.21105   0.34354   0.0000000000
H          H       0.78097   0.22225   0.32357   0.0000000000
H          H       0.74367   0.26766   0.32934   0.0000000000
H          H       0.88957   0.42885   0.13463   0.0000000000
H          H       0.83101   0.42732   0.15373   0.0000000000
H          H       0.87636   0.41194   0.18999   0.0000000000
H          H       0.67686   0.48422   0.17952   0.0000000000
H          H       0.65137   0.43048   0.30836   0.0000000000
H          H       0.73114   0.42364   0.16649   0.0000000000
H          H       0.70226   0.37081   0.29550   0.0000000000
C          C       0.47725   0.81816   0.91702   0.0000000000
C          C       0.23211   0.69411   0.60639   0.0000000000
C          C       0.25453   0.65735   0.54101   0.0000000000
B          B       0.28043   0.75152   0.64629   0.0000000000
O          O       0.24862   0.75988   0.67664   0.0000000000
C          C       0.29744   0.68125   0.53919   0.0000000000
C          C       0.27249   0.71714   0.60753   0.0000000000
C          C       0.30396   0.71296   0.57313   0.0000000000
O          O       0.32441   0.77470   0.64999   0.0000000000
C          C       0.18311   0.74557   0.76943   0.0000000000
C          C       0.34493   0.86512   0.58863   0.0000000000
H          H       0.15746   0.72530   0.79145   0.0000000000
H          H       0.17789   0.77947   0.77791   0.0000000000
H          H       0.16495   0.74340   0.73330   0.0000000000
H          H       0.36705   0.88284   0.56667   0.0000000000
H          H       0.34354   0.83084   0.57092   0.0000000000
H          H       0.31238   0.88142   0.58899   0.0000000000
H          H       0.32294   0.67873   0.51605   0.0000000000
H          H       0.19143   0.65179   0.57131   0.0000000000
H          H       0.33560   0.73249   0.57460   0.0000000000
H          H       0.20849   0.70126   0.62765   0.0000000000
C          C       0.58507   0.47638   0.17910   0.0000000000
C          C       0.73336   0.19675   0.10615   0.0000000000
C          C       0.75754   0.15651   0.03666   0.0000000000
B          B       0.78525   0.25438   0.14460   0.0000000000
O          O       0.74741   0.26076   0.17988   0.0000000000
C          C       0.79670   0.18105   0.04115   0.0000000000
C          C       0.77376   0.21951   0.10939   0.0000000000
C          C       0.80737   0.21191   0.07645   0.0000000000
O          O       0.82879   0.27410   0.14877   0.0000000000
C          C       0.68056   0.24602   0.26658   0.0000000000
C          C       0.84339   0.36472   0.08670   0.0000000000
H          H       0.66000   0.22668   0.28922   0.0000000000
H          H       0.67719   0.27975   0.28020   0.0000000000
H          H       0.66619   0.24164   0.23380   0.0000000000
H          H       0.86590   0.38575   0.06510   0.0000000000
H          H       0.84196   0.33031   0.07534   0.0000000000
H          H       0.81096   0.37637   0.08904   0.0000000000
H          H       0.82518   0.17707   0.01648   0.0000000000
H          H       0.69305   0.15018   0.06825   0.0000000000
H          H       0.83625   0.22795   0.07561   0.0000000000
H          H       0.70572   0.20381   0.13252   0.0000000000
C          C       0.08746   0.97631   0.68024   0.0000000000
C          C       0.73305   0.80207   0.39465   0.0000000000
C          C       0.76073   0.84107   0.45780   0.0000000000
B          B       0.78353   0.74771   0.35261   0.0000000000
O          O       0.74809   0.73622   0.31868   0.0000000000
C          C       0.79711   0.81553   0.46074   0.0000000000
C          C       0.77363   0.77854   0.39246   0.0000000000
C          C       0.80500   0.78727   0.42492   0.0000000000
O          O       0.82651   0.72409   0.34993   0.0000000000
C          C       0.68094   0.75582   0.23241   0.0000000000
C          C       0.84466   0.63478   0.40921   0.0000000000
H          H       0.65977   0.77782   0.21079   0.0000000000
H          H       0.67854   0.72057   0.22218   0.0000000000
H          H       0.66979   0.75990   0.26550   0.0000000000
H          H       0.86410   0.61119   0.43181   0.0000000000
H          H       0.84331   0.66917   0.42603   0.0000000000
H          H       0.81430   0.62084   0.41250   0.0000000000
H          H       0.82489   0.82223   0.48275   0.0000000000
H          H       0.69270   0.84769   0.43179   0.0000000000
H          H       0.83837   0.76805   0.42294   0.0000000000
H          H       0.70755   0.80065   0.37309   0.0000000000
C          C       0.08759   0.01914   0.81725   0.0000000000
C          C       0.23135   0.30512   0.89675   0.0000000000
C          C       0.25794   0.34391   0.95875   0.0000000000
B          B       0.28240   0.24837   0.85305   0.0000000000
O          O       0.25004   0.23751   0.82299   0.0000000000
C          C       0.29636   0.32246   0.95945   0.0000000000
C          C       0.27372   0.27842   0.89377   0.0000000000
C          C       0.30669   0.28668   0.92371   0.0000000000
O          O       0.32680   0.22686   0.84750   0.0000000000
C          C       0.18138   0.25583   0.72884   0.0000000000
C          C       0.34514   0.13389   0.90907   0.0000000000
H          H       0.15863   0.27471   0.71107   0.0000000000
H          H       0.17801   0.22089   0.71846   0.0000000000
H          H       0.16894   0.25811   0.76826   0.0000000000
H          H       0.36565   0.11376   0.93558   0.0000000000
H          H       0.34276   0.17198   0.92477   0.0000000000
H          H       0.31158   0.12218   0.91140   0.0000000000
H          H       0.32125   0.32168   0.98425   0.0000000000
H          H       0.19232   0.34755   0.93266   0.0000000000
H          H       0.33693   0.27001   0.92623   0.0000000000
H          H       0.20965   0.29667   0.87254   0.0000000000
C          C       0.58394   0.52054   0.32025   0.0000000000
C          C       0.26773   0.30372   0.10562   0.0000000000
C          C       0.23814   0.34188   0.04076   0.0000000000
B          B       0.21708   0.24861   0.14708   0.0000000000
O          O       0.25166   0.24147   0.18390   0.0000000000
C          C       0.20292   0.31768   0.04349   0.0000000000
C          C       0.22558   0.27897   0.10640   0.0000000000
C          C       0.19375   0.28766   0.07588   0.0000000000
O          O       0.17652   0.22385   0.15311   0.0000000000
C          C       0.32002   0.25558   0.26823   0.0000000000
C          C       0.15451   0.13467   0.08976   0.0000000000
H          H       0.34576   0.27906   0.29074   0.0000000000
H          H       0.31925   0.22277   0.27864   0.0000000000
H          H       0.33263   0.25829   0.23209   0.0000000000
H          H       0.13613   0.11421   0.06453   0.0000000000
H          H       0.15409   0.16897   0.07217   0.0000000000
H          H       0.18888   0.12030   0.08621   0.0000000000
H          H       0.17595   0.32494   0.01645   0.0000000000
H          H       0.30775   0.35008   0.07126   0.0000000000
H          H       0.16509   0.26928   0.07437   0.0000000000
H          H       0.28952   0.29768   0.12794   0.0000000000
C          C       0.91636   0.52157   0.68047   0.0000000000
C          C       0.76465   0.80441   0.60483   0.0000000000
C          C       0.74375   0.84108   0.54067   0.0000000000
B          B       0.71954   0.74600   0.64404   0.0000000000
O          O       0.75436   0.74176   0.67885   0.0000000000
C          C       0.69903   0.81870   0.53793   0.0000000000
C          C       0.72570   0.77808   0.60900   0.0000000000
C          C       0.69691   0.78932   0.57459   0.0000000000
O          O       0.67197   0.72499   0.64553   0.0000000000
C          C       0.82116   0.75645   0.76849   0.0000000000
C          C       0.65387   0.63442   0.58778   0.0000000000
H          H       0.84223   0.77597   0.79014   0.0000000000
H          H       0.82524   0.72159   0.77848   0.0000000000
H          H       0.83144   0.75624   0.73116   0.0000000000
H          H       0.63378   0.61358   0.56850   0.0000000000
H          H       0.65269   0.66841   0.57165   0.0000000000
H          H       0.68884   0.62121   0.58851   0.0000000000
H          H       0.67555   0.82159   0.51621   0.0000000000
H          H       0.80691   0.84874   0.57011   0.0000000000
H          H       0.66236   0.76736   0.57686   0.0000000000
H          H       0.79373   0.80053   0.62906   0.0000000000
C          C       0.41561   0.02308   0.18003   0.0000000000
C          C       0.76858   0.19639   0.89400   0.0000000000
C          C       0.73884   0.15922   0.96068   0.0000000000
B          B       0.72021   0.25491   0.85339   0.0000000000
O          O       0.75318   0.25923   0.82157   0.0000000000
C          C       0.70303   0.18338   0.95702   0.0000000000
C          C       0.72614   0.22196   0.89083   0.0000000000
C          C       0.69382   0.21243   0.92520   0.0000000000
O          O       0.67316   0.27573   0.85056   0.0000000000
C          C       0.81739   0.24266   0.73179   0.0000000000
C          C       0.65239   0.36365   0.91356   0.0000000000
H          H       0.83935   0.22249   0.71520   0.0000000000
H          H       0.82227   0.27828   0.72258   0.0000000000
H          H       0.83227   0.24232   0.76566   0.0000000000
H          H       0.63618   0.38469   0.93368   0.0000000000
H          H       0.65288   0.33148   0.92318   0.0000000000
H          H       0.68711   0.38098   0.90923   0.0000000000
H          H       0.67559   0.17777   0.98432   0.0000000000
H          H       0.80630   0.14874   0.92753   0.0000000000
H          H       0.66254   0.23176   0.92392   0.0000000000
H          H       0.79249   0.20510   0.86498   0.0000000000
C          C       0.41435   0.97934   0.31941   0.0000000000
C          C       0.26727   0.69294   0.39382   0.0000000000
C          C       0.23978   0.65563   0.45921   0.0000000000
B          B       0.21394   0.75182   0.34779   0.0000000000
O          O       0.25387   0.76005   0.32130   0.0000000000
C          C       0.19949   0.68251   0.45956   0.0000000000
C          C       0.22467   0.72014   0.39231   0.0000000000
C          C       0.19388   0.71107   0.42593   0.0000000000
O          O       0.17414   0.77380   0.35106   0.0000000000
C          C       0.32155   0.74381   0.23374   0.0000000000
C          C       0.15559   0.86538   0.41160   0.0000000000
H          H       0.34311   0.72445   0.20842   0.0000000000
H          H       0.31976   0.77844   0.21895   0.0000000000
H          H       0.33088   0.74425   0.26592   0.0000000000
H          H       0.13257   0.88720   0.43458   0.0000000000
H          H       0.15153   0.83260   0.42482   0.0000000000
H          H       0.18804   0.87897   0.40823   0.0000000000
H          H       0.17719   0.68003   0.48370   0.0000000000
H          H       0.30678   0.65074   0.43106   0.0000000000
H          H       0.16280   0.73222   0.42598   0.0000000000
H          H       0.29288   0.70303   0.36899   0.0000000000
C          C       0.91462   0.47628   0.82139   0.0000000000
C          C       0.60281   0.23555   0.69570   0.0000000000
C          C       0.53935   0.25689   0.65567   0.0000000000
B          B       0.64681   0.28345   0.75338   0.0000000000
O          O       0.67982   0.24874   0.75928   0.0000000000
C          C       0.54174   0.29968   0.68319   0.0000000000
C          C       0.60777   0.27483   0.71936   0.0000000000
C          C       0.57044   0.30639   0.71211   0.0000000000
O          O       0.64943   0.32858   0.77499   0.0000000000
C          C       0.76731   0.18160   0.74153   0.0000000000
C          C       0.59015   0.34580   0.86216   0.0000000000
H          H       0.79060   0.15599   0.72284   0.0000000000
H          H       0.77818   0.17392   0.77721   0.0000000000
H          H       0.73446   0.16889   0.74143   0.0000000000
H          H       0.56808   0.36436   0.88539   0.0000000000
H          H       0.57458   0.34352   0.83130   0.0000000000
H          H       0.58687   0.30861   0.87894   0.0000000000
H          H       0.51418   0.32335   0.67461   0.0000000000
H          H       0.56965   0.19177   0.64828   0.0000000000
H          H       0.57837   0.33434   0.73331   0.0000000000
H          H       0.63058   0.21000   0.69765   0.0000000000
C          C       0.17914   0.58255   0.47863   0.0000000000
C          C       0.10737   0.73454   0.19644   0.0000000000
C          C       0.04130   0.75878   0.15851   0.0000000000
B          B       0.14934   0.78250   0.25617   0.0000000000
O          O       0.17835   0.74763   0.26223   0.0000000000
C          C       0.04280   0.79704   0.18365   0.0000000000
C          C       0.11052   0.77287   0.21963   0.0000000000
C          C       0.07633   0.80603   0.21164   0.0000000000
O          O       0.14875   0.82801   0.27416   0.0000000000
C          C       0.26787   0.68201   0.24800   0.0000000000
C          C       0.08650   0.84623   0.36526   0.0000000000
H          H       0.28767   0.65910   0.22348   0.0000000000
H          H       0.27532   0.67519   0.27715   0.0000000000
H          H       0.23086   0.66955   0.24459   0.0000000000
H          H       0.06467   0.86374   0.38583   0.0000000000
H          H       0.07279   0.84402   0.32982   0.0000000000
H          H       0.08705   0.81141   0.37560   0.0000000000
H          H       0.01494   0.82420   0.17927   0.0000000000
H          H       0.06796   0.69195   0.15033   0.0000000000
H          H       0.07540   0.83806   0.23086   0.0000000000
H          H       0.13039   0.70712   0.20301   0.0000000000
C          C       0.67817   0.08401   0.97559   0.0000000000
C          C       0.39847   0.72938   0.80502   0.0000000000
C          C       0.45971   0.75885   0.84146   0.0000000000
B          B       0.35184   0.78314   0.74831   0.0000000000
O          O       0.32119   0.74669   0.74190   0.0000000000
C          C       0.46004   0.79969   0.81657   0.0000000000
C          C       0.39183   0.77254   0.78114   0.0000000000
C          C       0.42667   0.80412   0.78871   0.0000000000
O          O       0.35155   0.82539   0.72533   0.0000000000
C          C       0.23369   0.68048   0.75556   0.0000000000
C          C       0.41262   0.84467   0.63323   0.0000000000
H          H       0.21198   0.65759   0.77603   0.0000000000
H          H       0.21886   0.67742   0.72069   0.0000000000
H          H       0.26666   0.66674   0.76017   0.0000000000
H          H       0.43402   0.86744   0.61548   0.0000000000
H          H       0.42321   0.84400   0.67094   0.0000000000
H          H       0.41448   0.81017   0.62219   0.0000000000
H          H       0.48568   0.82332   0.82249   0.0000000000
H          H       0.43142   0.69350   0.85198   0.0000000000
H          H       0.42694   0.83754   0.77210   0.0000000000
H          H       0.36944   0.70915   0.79513   0.0000000000
C          C       0.81821   0.08634   0.02203   0.0000000000
C          C       0.89423   0.23151   0.30179   0.0000000000
C          C       0.96067   0.25503   0.34226   0.0000000000
B          B       0.85440   0.28274   0.24510   0.0000000000
O          O       0.81877   0.24776   0.23936   0.0000000000
C          C       0.95945   0.29675   0.32088   0.0000000000
C          C       0.89020   0.27253   0.27744   0.0000000000
C          C       0.92700   0.30695   0.28793   0.0000000000
O          O       0.85060   0.32563   0.22497   0.0000000000
C          C       0.73173   0.18405   0.25658   0.0000000000
C          C       0.90943   0.34468   0.13314   0.0000000000
H          H       0.70973   0.16007   0.27887   0.0000000000
H          H       0.72016   0.17354   0.22050   0.0000000000
H          H       0.76308   0.16720   0.25863   0.0000000000
H          H       0.93379   0.36728   0.11454   0.0000000000
H          H       0.92649   0.34789   0.16802   0.0000000000
H          H       0.91376   0.31047   0.12159   0.0000000000
H          H       0.98340   0.32482   0.31920   0.0000000000
H          H       0.92734   0.19336   0.34790   0.0000000000
H          H       0.92476   0.33577   0.26956   0.0000000000
H          H       0.87182   0.21077   0.29711   0.0000000000
C          C       0.31858   0.58670   0.51890   0.0000000000
C          C       0.10631   0.26673   0.30467   0.0000000000
C          C       0.03867   0.24293   0.34602   0.0000000000
B          B       0.14708   0.21317   0.24375   0.0000000000
O          O       0.18197   0.25210   0.23966   0.0000000000
C          C       0.04272   0.20327   0.31479   0.0000000000
C          C       0.10883   0.22457   0.28184   0.0000000000
C          C       0.07487   0.19471   0.28854   0.0000000000
O          O       0.14756   0.17284   0.22645   0.0000000000
C          C       0.27027   0.32207   0.25522   0.0000000000
C          C       0.08837   0.15348   0.13211   0.0000000000
H          H       0.28943   0.34181   0.27787   0.0000000000
H          H       0.27820   0.32331   0.22158   0.0000000000
H          H       0.23191   0.33114   0.25770   0.0000000000
H          H       0.06647   0.13346   0.11386   0.0000000000
H          H       0.07371   0.15813   0.16746   0.0000000000
H          H       0.08699   0.18829   0.12522   0.0000000000
H          H       0.01477   0.17869   0.32164   0.0000000000
H          H       0.06691   0.30605   0.34816   0.0000000000
H          H       0.07264   0.16435   0.27014   0.0000000000
H          H       0.13092   0.29354   0.29884   0.0000000000
C          C       0.68192   0.91344   0.52378   0.0000000000
C          C       0.60487   0.76745   0.80238   0.0000000000
C          C       0.53965   0.74150   0.84367   0.0000000000
B          B       0.64650   0.71613   0.74587   0.0000000000
O          O       0.67855   0.75122   0.74119   0.0000000000
C          C       0.54198   0.70197   0.82070   0.0000000000
C          C       0.60880   0.72543   0.78101   0.0000000000
C          C       0.57527   0.69620   0.78979   0.0000000000
O          O       0.64830   0.67486   0.72810   0.0000000000
C          C       0.76847   0.81855   0.75695   0.0000000000
C          C       0.58699   0.64992   0.63625   0.0000000000
H          H       0.78877   0.84059   0.77576   0.0000000000
H          H       0.78065   0.82039   0.72211   0.0000000000
H          H       0.73106   0.83285   0.76035   0.0000000000
H          H       0.56453   0.63482   0.61490   0.0000000000
H          H       0.57628   0.65373   0.67189   0.0000000000
H          H       0.58816   0.68965   0.62189   0.0000000000
H          H       0.51494   0.67774   0.82472   0.0000000000
H          H       0.57306   0.80711   0.85110   0.0000000000
H          H       0.57344   0.66091   0.76955   0.0000000000
H          H       0.62957   0.79233   0.79811   0.0000000000
C          C       0.18044   0.41615   0.02409   0.0000000000
C          C       0.89249   0.76348   0.19792   0.0000000000
C          C       0.95992   0.74250   0.15577   0.0000000000
B          B       0.85681   0.71631   0.25423   0.0000000000
O          O       0.81758   0.75656   0.25747   0.0000000000
C          C       0.95882   0.70201   0.18369   0.0000000000
C          C       0.89406   0.72921   0.21770   0.0000000000
C          C       0.92272   0.69439   0.21386   0.0000000000
O          O       0.84897   0.67109   0.27634   0.0000000000
C          C       0.73266   0.81893   0.24550   0.0000000000
C          C       0.91176   0.65525   0.36402   0.0000000000
H          H       0.71253   0.84259   0.22149   0.0000000000
H          H       0.71757   0.82450   0.28187   0.0000000000
H          H       0.76726   0.83371   0.24179   0.0000000000
H          H       0.93141   0.63359   0.38630   0.0000000000
H          H       0.92486   0.65674   0.33235   0.0000000000
H          H       0.91003   0.68932   0.37751   0.0000000000
H          H       0.98342   0.67506   0.17608   0.0000000000
H          H       0.92797   0.80587   0.15103   0.0000000000
H          H       0.92430   0.66389   0.23379   0.0000000000
H          H       0.86872   0.79448   0.19728   0.0000000000
C          C       0.31847   0.41830   0.97684   0.0000000000
C          C       0.39395   0.26928   0.69791   0.0000000000
C          C       0.46318   0.24007   0.65509   0.0000000000
B          B       0.35253   0.21873   0.75292   0.0000000000
O          O       0.31966   0.25247   0.75761   0.0000000000
C          C       0.46052   0.20217   0.68359   0.0000000000
C          C       0.39164   0.22487   0.71781   0.0000000000
C          C       0.42688   0.19247   0.71271   0.0000000000
O          O       0.35364   0.17199   0.77345   0.0000000000
C          C       0.23289   0.32279   0.74640   0.0000000000
C          C       0.41104   0.15525   0.86709   0.0000000000
H          H       0.21175   0.34366   0.72416   0.0000000000
H          H       0.22169   0.32211   0.77712   0.0000000000
H          H       0.27035   0.32810   0.74141   0.0000000000
H          H       0.42996   0.13168   0.88774   0.0000000000
H          H       0.42747   0.15713   0.82903   0.0000000000
H          H       0.41097   0.18784   0.87814   0.0000000000
H          H       0.48596   0.17668   0.67785   0.0000000000
H          H       0.42724   0.30528   0.65030   0.0000000000
H          H       0.42396   0.16143   0.73024   0.0000000000
H          H       0.36994   0.29140   0.70163   0.0000000000
C          C       0.81922   0.91699   0.47974   0.0000000000
C          C       0.85864   0.94718   0.48649   0.0000000000
C          C       0.79248   0.90991   0.50740   0.0000000000
B          B       0.89736   0.00035   0.53425   0.0000000000
O          O       0.93030   0.00845   0.50052   0.0000000000
C          C       0.79110   0.93402   0.54804   0.0000000000
C          C       0.85697   0.97094   0.52468   0.0000000000
C          C       0.82231   0.96155   0.55803   0.0000000000
O          O       0.90124   0.02726   0.57789   0.0000000000
C          C       0.01657   0.99471   0.42916   0.0000000000
C          C       0.83894   0.11568   0.60058   0.0000000000
H          H       0.03893   0.96879   0.40843   0.0000000000
H          H       0.02840   0.02633   0.42714   0.0000000000
H          H       0.98484   0.99123   0.41683   0.0000000000
H          H       0.81815   0.13605   0.61612   0.0000000000
H          H       0.82332   0.08257   0.59580   0.0000000000
H          H       0.83838   0.12848   0.56033   0.0000000000
H          H       0.76439   0.92736   0.57466   0.0000000000
H          H       0.82089   0.90169   0.44315   0.0000000000
H          H       0.82368   0.98381   0.58358   0.0000000000
H          H       0.88335   0.95088   0.45497   0.0000000000
C          C       0.42943   0.72954   0.83576   0.0000000000
C          C       0.35787   0.44687   0.98210   0.0000000000
C          C       0.29157   0.40838   0.00974   0.0000000000
B          B       0.39913   0.50176   0.03375   0.0000000000
O          O       0.42968   0.50935   0.99772   0.0000000000
C          C       0.29169   0.43134   0.04734   0.0000000000
C          C       0.35469   0.46769   0.02418   0.0000000000
C          C       0.32412   0.46518   0.05744   0.0000000000
O          O       0.39844   0.52739   0.07766   0.0000000000
C          C       0.51823   0.49412   0.92910   0.0000000000
C          C       0.33829   0.61281   0.09223   0.0000000000
H          H       0.53815   0.47452   0.90772   0.0000000000
H          H       0.53018   0.52900   0.92540   0.0000000000
H          H       0.48052   0.49172   0.91888   0.0000000000
H          H       0.31840   0.63211   0.11724   0.0000000000
H          H       0.32780   0.58167   0.09457   0.0000000000
H          H       0.33734   0.62840   0.06265   0.0000000000
H          H       0.26300   0.43024   0.07211   0.0000000000
H          H       0.32015   0.40361   0.94128   0.0000000000
H          H       0.32530   0.47922   0.08701   0.0000000000
H          H       0.37731   0.45420   0.95983   0.0000000000
C          C       0.93024   0.22641   0.33419   0.0000000000
C          C       0.64362   0.05451   0.98195   0.0000000000
C          C       0.70778   0.09167   0.00654   0.0000000000
B          B       0.60157   0.99712   0.03538   0.0000000000
O          O       0.57266   0.99148   0.99856   0.0000000000
C          C       0.71081   0.06953   0.05088   0.0000000000
C          C       0.64267   0.02989   0.02235   0.0000000000
C          C       0.67566   0.03746   0.05709   0.0000000000
O          O       0.60066   0.97514   0.07640   0.0000000000
C          C       0.48250   0.00573   0.93130   0.0000000000
C          C       0.66299   0.88555   0.09809   0.0000000000
H          H       0.45938   0.02557   0.90881   0.0000000000
H          H       0.47099   0.97457   0.92826   0.0000000000
H          H       0.51611   0.00583   0.91837   0.0000000000
H          H       0.68420   0.86561   0.11644   0.0000000000
H          H       0.67759   0.92029   0.09432   0.0000000000
H          H       0.65796   0.87159   0.06340   0.0000000000
H          H       0.73188   0.07142   0.07468   0.0000000000
H          H       0.67719   0.09824   0.94589   0.0000000000
H          H       0.67361   0.01717   0.08674   0.0000000000
H          H       0.61917   0.04882   0.95482   0.0000000000
C          C       0.07055   0.27020   0.33312   0.0000000000
C          C       0.14271   0.55356   0.48294   0.0000000000
C          C       0.21312   0.59144   0.50643   0.0000000000
B          B       0.10381   0.49604   0.53198   0.0000000000
O          O       0.07443   0.49153   0.49716   0.0000000000
C          C       0.20712   0.56928   0.54928   0.0000000000
C          C       0.14439   0.53040   0.52343   0.0000000000
C          C       0.17753   0.53689   0.55639   0.0000000000
O          O       0.10157   0.47628   0.57727   0.0000000000
C          C       0.98250   0.50564   0.42867   0.0000000000
C          C       0.16134   0.38421   0.59309   0.0000000000
H          H       0.96098   0.52520   0.40775   0.0000000000
H          H       0.97218   0.46971   0.42735   0.0000000000
H          H       0.01994   0.50246   0.41833   0.0000000000
H          H       0.18511   0.36515   0.61634   0.0000000000
H          H       0.17557   0.41743   0.59579   0.0000000000
H          H       0.16154   0.37064   0.56298   0.0000000000
H          H       0.23776   0.57055   0.57034   0.0000000000
H          H       0.17851   0.59926   0.44590   0.0000000000
H          H       0.17712   0.51978   0.58589   0.0000000000
H          H       0.12053   0.54934   0.45743   0.0000000000
C          C       0.56889   0.77007   0.83558   0.0000000000
C          C       0.35674   0.55650   0.51799   0.0000000000
C          C       0.28987   0.59288   0.49370   0.0000000000
B          B       0.39698   0.49829   0.46955   0.0000000000
O          O       0.43068   0.48893   0.50500   0.0000000000
C          C       0.29151   0.56670   0.45296   0.0000000000
C          C       0.35733   0.53172   0.47590   0.0000000000
C          C       0.32382   0.53918   0.44671   0.0000000000
O          O       0.39808   0.47411   0.42505   0.0000000000
C          C       0.51916   0.50606   0.56912   0.0000000000
C          C       0.34080   0.38450   0.40346   0.0000000000
H          H       0.53843   0.52589   0.58859   0.0000000000
H          H       0.52948   0.46959   0.57687   0.0000000000
H          H       0.48466   0.50764   0.58222   0.0000000000
H          H       0.31761   0.36383   0.38717   0.0000000000
H          H       0.32027   0.41702   0.40895   0.0000000000
H          H       0.33801   0.37215   0.43872   0.0000000000
H          H       0.26405   0.56797   0.42716   0.0000000000
H          H       0.31967   0.60042   0.55634   0.0000000000
H          H       0.32713   0.51905   0.41286   0.0000000000
H          H       0.38072   0.54941   0.54131   0.0000000000
C          C       0.93089   0.77352   0.16729   0.0000000000
C          C       0.85318   0.05645   0.01788   0.0000000000
C          C       0.79227   0.09226   0.98941   0.0000000000
B          B       0.89583   0.99955   0.96781   0.0000000000
O          O       0.93118   0.98934   0.00293   0.0000000000
C          C       0.79109   0.06984   0.95297   0.0000000000
C          C       0.85962   0.03016   0.97796   0.0000000000
C          C       0.82409   0.03584   0.94760   0.0000000000
O          O       0.89668   0.97303   0.92552   0.0000000000
C          C       0.01948   0.00141   0.06985   0.0000000000
C          C       0.83878   0.88006   0.90249   0.0000000000
H          H       0.03966   0.02702   0.09353   0.0000000000
H          H       0.03199   0.97006   0.07212   0.0000000000
H          H       0.98256   0.00649   0.08138   0.0000000000
H          H       0.81515   0.86270   0.88148   0.0000000000
H          H       0.82640   0.92068   0.90590   0.0000000000
H          H       0.83696   0.87169   0.93903   0.0000000000
H          H       0.76564   0.07227   0.92798   0.0000000000
H          H       0.82224   0.09740   0.05626   0.0000000000
H          H       0.82526   0.01914   0.91304   0.0000000000
H          H       0.88003   0.04325   0.04529   0.0000000000
C          C       0.42769   0.27402   0.66868   0.0000000000
C          C       0.14532   0.44703   0.01740   0.0000000000
C          C       0.21164   0.41045   0.99272   0.0000000000
B          B       0.10102   0.50426   0.96908   0.0000000000
O          O       0.06922   0.51095   0.00512   0.0000000000
C          C       0.21027   0.43094   0.95274   0.0000000000
C          C       0.14113   0.46824   0.97324   0.0000000000
C          C       0.17584   0.46397   0.94524   0.0000000000
O          O       0.10151   0.52365   0.92437   0.0000000000
C          C       0.98183   0.49690   0.06932   0.0000000000
C          C       0.16520   0.61364   0.90548   0.0000000000
H          H       0.96179   0.47583   0.09167   0.0000000000
H          H       0.97128   0.53354   0.07315   0.0000000000
H          H       0.01697   0.49131   0.08283   0.0000000000
H          H       0.18358   0.63777   0.88496   0.0000000000
H          H       0.17591   0.58146   0.90714   0.0000000000
H          H       0.16352   0.62894   0.93961   0.0000000000
H          H       0.23341   0.42710   0.92841   0.0000000000
H          H       0.18008   0.40097   0.05693   0.0000000000
H          H       0.17534   0.47997   0.91545   0.0000000000
H          H       0.11988   0.45272   0.03939   0.0000000000
C          C       0.56990   0.22972   0.66724   0.0000000000
C          C       0.64285   0.94698   0.51680   0.0000000000
C          C       0.71236   0.90858   0.48913   0.0000000000
B          B       0.60386   0.00476   0.46694   0.0000000000
O          O       0.57057   0.00931   0.50118   0.0000000000
C          C       0.70993   0.93665   0.45174   0.0000000000
C          C       0.64317   0.97044   0.47371   0.0000000000
C          C       0.67587   0.96359   0.44444   0.0000000000
O          O       0.60244   0.02508   0.42105   0.0000000000
C          C       0.48031   0.99458   0.57135   0.0000000000
C          C       0.66322   0.11391   0.40169   0.0000000000
H          H       0.45848   0.97151   0.59152   0.0000000000
H          H       0.47066   0.02738   0.57354   0.0000000000
H          H       0.51644   0.99292   0.58164   0.0000000000
H          H       0.67995   0.13683   0.38198   0.0000000000
H          H       0.67348   0.08057   0.40664   0.0000000000
H          H       0.66076   0.12633   0.43635   0.0000000000
H          H       0.73527   0.93182   0.42526   0.0000000000
H          H       0.68189   0.90026   0.55971   0.0000000000
H          H       0.67365   0.97960   0.41336   0.0000000000
H          H       0.62035   0.95190   0.54148   0.0000000000
C          C       0.07056   0.72686   0.16336   0.0000000000
C          C       0.94639   0.48555   0.85717   0.0000000000
C          C       0.90463   0.50708   0.78911   0.0000000000
B          B       0.00166   0.53396   0.89502   0.0000000000
O          O       0.01010   0.49872   0.92841   0.0000000000
C          C       0.92957   0.54599   0.79287   0.0000000000
C          C       0.97052   0.52257   0.85794   0.0000000000
C          C       0.96344   0.55517   0.82631   0.0000000000
O          O       0.02432   0.57584   0.89899   0.0000000000
C          C       0.99855   0.43377   0.01736   0.0000000000
C          C       0.11623   0.59342   0.83575   0.0000000000
H          H       0.97405   0.40629   0.03692   0.0000000000
H          H       0.03074   0.42826   0.02733   0.0000000000
H          H       0.99092   0.41686   0.98311   0.0000000000
H          H       0.13342   0.61529   0.81473   0.0000000000
H          H       0.08325   0.59410   0.82286   0.0000000000
H          H       0.12820   0.56108   0.83766   0.0000000000
H          H       0.92608   0.57307   0.76309   0.0000000000
H          H       0.90297   0.44097   0.81989   0.0000000000
H          H       0.98032   0.58512   0.82530   0.0000000000
H          H       0.95402   0.45620   0.88003   0.0000000000
C          C       0.72770   0.83385   0.42689   0.0000000000
C          C       0.44741   0.98117   0.35505   0.0000000000
C          C       0.40478   0.00883   0.28894   0.0000000000
B          B       0.50122   0.03136   0.39916   0.0000000000
O          O       0.51036   0.99704   0.43152   0.0000000000
C          C       0.43438   0.04455   0.29122   0.0000000000
C          C       0.46801   0.02223   0.35922   0.0000000000
C          C       0.46563   0.05701   0.32568   0.0000000000
O          O       0.52467   0.08068   0.39930   0.0000000000
C          C       0.49528   0.92758   0.51709   0.0000000000
C          C       0.61364   0.09504   0.33764   0.0000000000
H          H       0.47424   0.90864   0.54075   0.0000000000
H          H       0.52758   0.92636   0.52671   0.0000000000
H          H       0.49108   0.91750   0.48365   0.0000000000
H          H       0.63499   0.11952   0.31456   0.0000000000
H          H       0.57972   0.09436   0.32201   0.0000000000
H          H       0.62758   0.06379   0.34188   0.0000000000
H          H       0.43129   0.07415   0.26385   0.0000000000
H          H       0.40016   0.94196   0.32117   0.0000000000
H          H       0.47926   0.08605   0.32612   0.0000000000
H          H       0.44918   0.95419   0.38058   0.0000000000
C          C       0.22476   0.33427   0.92920   0.0000000000
C          C       0.05276   0.98293   0.64446   0.0000000000
C          C       0.09567   0.00851   0.71084   0.0000000000
B          B       0.99743   0.03052   0.60264   0.0000000000
O          O       0.99030   1.00034   0.56987   0.0000000000
C          C       0.06680   0.04865   0.71036   0.0000000000
C          C       0.02876   0.02561   0.64166   0.0000000000
C          C       0.03883   0.05842   0.67312   0.0000000000
O          O       0.97347   0.07603   0.59972   0.0000000000
C          C       0.00770   0.92705   0.48284   0.0000000000
C          C       0.88380   0.09383   0.66180   0.0000000000
H          H       0.02482   0.90891   0.46176   0.0000000000
H          H       0.97184   0.92858   0.47050   0.0000000000
H          H       0.00765   0.91821   0.51649   0.0000000000
H          H       0.86464   0.11926   0.68385   0.0000000000
H          H       0.91776   0.09255   0.67545   0.0000000000
H          H       0.86821   0.05890   0.66344   0.0000000000
H          H       0.07169   0.07095   0.73536   0.0000000000
H          H       0.10045   0.94330   0.67805   0.0000000000
H          H       0.01870   0.08519   0.67571   0.0000000000
H          H       0.05026   0.96048   0.61952   0.0000000000
C          C       0.27314   0.33304   0.06673   0.0000000000
C          C       0.55482   0.48153   0.14317   0.0000000000
C          C       0.59341   0.50843   0.20915   0.0000000000
B          B       0.49651   0.53361   0.10287   0.0000000000
O          O       0.48841   0.49719   0.07085   0.0000000000
C          C       0.56671   0.54674   0.20598   0.0000000000
C          C       0.52854   0.52532   0.14213   0.0000000000
C          C       0.53561   0.55479   0.17530   0.0000000000
O          O       0.47545   0.57760   0.09831   0.0000000000
C          C       0.50458   0.43003   0.98313   0.0000000000
C          C       0.38536   0.59781   0.16285   0.0000000000
H          H       0.52867   0.40800   0.95992   0.0000000000
H          H       0.46875   0.42592   0.97330   0.0000000000
H          H       0.50982   0.41599   0.01720   0.0000000000
H          H       0.36675   0.61264   0.18625   0.0000000000
H          H       0.41919   0.59655   0.17359   0.0000000000
H          H       0.37147   0.56187   0.16308   0.0000000000
H          H       0.56976   0.57426   0.23518   0.0000000000
H          H       0.59573   0.44195   0.17823   0.0000000000
H          H       0.52021   0.58744   0.17804   0.0000000000
H          H       0.54657   0.45809   0.11953   0.0000000000
C          C       0.77161   0.83389   0.56978   0.0000000000
C          C       0.55568   0.51590   0.35467   0.0000000000
C          C       0.58971   0.49081   0.28816   0.0000000000
B          B       0.49939   0.46524   0.39467   0.0000000000
O          O       0.48998   0.50394   0.42812   0.0000000000
C          C       0.56803   0.45114   0.29226   0.0000000000
C          C       0.52959   0.47628   0.35921   0.0000000000
C          C       0.54098   0.44442   0.32433   0.0000000000
O          O       0.47711   0.42325   0.39955   0.0000000000
C          C       0.50353   0.56794   0.51611   0.0000000000
C          C       0.38269   0.40284   0.34074   0.0000000000
H          H       0.52463   0.59352   0.53932   0.0000000000
H          H       0.47274   0.57448   0.53206   0.0000000000
H          H       0.50955   0.58551   0.48348   0.0000000000
H          H       0.36406   0.38373   0.31665   0.0000000000
H          H       0.41982   0.40281   0.32351   0.0000000000
H          H       0.36990   0.43804   0.34160   0.0000000000
H          H       0.57224   0.43020   0.26378   0.0000000000
H          H       0.60036   0.55382   0.31956   0.0000000000
H          H       0.52033   0.41486   0.32345   0.0000000000
H          H       0.54670   0.54404   0.38065   0.0000000000
C          C       0.77359   0.16533   0.93099   0.0000000000
C          C       0.05282   0.01450   0.85466   0.0000000000
C          C       0.09387   0.99038   0.79198   0.0000000000
B          B       0.99619   0.96729   0.89789   0.0000000000
O          O       0.99019   0.00051   0.92751   0.0000000000
C          C       0.07099   0.95102   0.79048   0.0000000000
C          C       0.03037   0.97492   0.85902   0.0000000000
C          C       0.03603   0.94590   0.82466   0.0000000000
O          O       0.97692   0.92278   0.89882   0.0000000000
C          C       0.00484   0.07058   0.01800   0.0000000000
C          C       0.88236   0.90414   0.83713   0.0000000000
H          H       0.02365   0.08913   0.04003   0.0000000000
H          H       0.96945   0.07512   0.03063   0.0000000000
H          H       0.00958   0.08232   0.98366   0.0000000000
H          H       0.86598   0.88195   0.81575   0.0000000000
H          H       0.91708   0.90647   0.82089   0.0000000000
H          H       0.87206   0.93751   0.83842   0.0000000000
H          H       0.07537   0.92904   0.76441   0.0000000000
H          H       0.09814   0.05920   0.82316   0.0000000000
H          H       0.01948   0.91307   0.82408   0.0000000000
H          H       0.04648   0.04277   0.87543   0.0000000000
C          C       0.26990   0.66651   0.42869   0.0000000000
C          C       0.44583   0.01591   0.14310   0.0000000000
C          C       0.40861   0.99212   0.21243   0.0000000000
B          B       0.50313   0.96794   0.10630   0.0000000000
O          O       0.50873   0.00155   0.07109   0.0000000000
C          C       0.43236   0.94968   0.21034   0.0000000000
C          C       0.46630   0.97748   0.14003   0.0000000000
C          C       0.46050   0.94483   0.17647   0.0000000000
O          O       0.52714   0.92465   0.10059   0.0000000000
C          C       0.49577   0.07088   0.98270   0.0000000000
C          C       0.61459   0.90308   0.16535   0.0000000000
H          H       0.47531   0.09137   0.96044   0.0000000000
H          H       0.52853   0.07441   0.96858   0.0000000000
H          H       0.49120   0.08262   0.01664   0.0000000000
H          H       0.63881   0.88159   0.18316   0.0000000000
H          H       0.58173   0.90448   0.17548   0.0000000000
H          H       0.62712   0.93777   0.16326   0.0000000000
H          H       0.42737   0.92743   0.23532   0.0000000000
H          H       0.39868   0.05713   0.18036   0.0000000000
H          H       0.48002   0.91117   0.17568   0.0000000000
H          H       0.45143   0.04256   0.11994   0.0000000000
C          C       0.22625   0.66512   0.57020   0.0000000000
C          C       0.94350   0.51520   0.64304   0.0000000000
C          C       0.90723   0.49070   0.70939   0.0000000000
B          B      -0.00147   0.47019   0.60625   0.0000000000
O          O       0.00854   0.50144   0.57282   0.0000000000
C          C       0.92966   0.45047   0.71047   0.0000000000
C          C       0.96647   0.47357   0.64407   0.0000000000
C          C       0.96636   0.44367   0.67458   0.0000000000
O          O       0.02758   0.42417   0.60035   0.0000000000
C          C       0.99785   0.56814   0.48493   0.0000000000
C          C       0.11484   0.40303   0.66217   0.0000000000
H          H       0.97451   0.59280   0.46319   0.0000000000
H          H       0.02911   0.57144   0.46927   0.0000000000
H          H       0.99143   0.58182   0.51587   0.0000000000
H          H       0.13729   0.38304   0.68473   0.0000000000
H          H       0.07847   0.40358   0.67716   0.0000000000
H          H       0.12800   0.43789   0.66087   0.0000000000
H          H       0.92781   0.42793   0.73599   0.0000000000
H          H       0.90325   0.55928   0.68063   0.0000000000
H          H       0.98344   0.41275   0.67419   0.0000000000
H          H       0.95160   0.54270   0.61809   0.0000000000
C          C       0.72779   0.16928   0.07055   0.0000000000
C          C       0.48038   0.85895   0.94739   0.0000000000
C          C       0.50932   0.79010   0.90613   0.0000000000
B          B       0.53271   0.89293   0.00142   0.0000000000
O          O       0.49862   0.93055   0.01281   0.0000000000
C          C       0.54745   0.78958   0.93271   0.0000000000
C          C       0.52236   0.85711   0.96894   0.0000000000
C          C       0.55256   0.82584   0.96196   0.0000000000
O          O       0.57540   0.89852   0.02155   0.0000000000
C          C       0.43031   0.01842   0.99209   0.0000000000
C          C       0.59260   0.83674   0.11373   0.0000000000
H          H       0.41043   0.03840   0.97235   0.0000000000
H          H       0.42589   0.02855   0.03085   0.0000000000
H          H       0.41775   0.98429   0.99183   0.0000000000
H          H       0.61550   0.81563   0.13534   0.0000000000
H          H       0.59377   0.82067   0.08213   0.0000000000
H          H       0.56222   0.83405   0.12995   0.0000000000
H          H       0.57407   0.76422   0.92994   0.0000000000
H          H       0.44314   0.81998   0.89912   0.0000000000
H          H       0.58621   0.82399   0.98200   0.0000000000
H          H       0.45736   0.87863   0.95386   0.0000000000
C          C       0.83456   0.43004   0.72813   0.0000000000
C          C       0.98253   0.35412   0.44820   0.0000000000
C          C       0.00674   0.28630   0.40770   0.0000000000
B          B       0.03381   0.39743   0.50413   0.0000000000
O          O       0.99882   0.43155   0.50749   0.0000000000
C          C       0.04717   0.29026   0.43154   0.0000000000
C          C       0.02421   0.35831   0.46959   0.0000000000
C          C       0.05524   0.32206   0.46350   0.0000000000
O          O       0.07546   0.39824   0.52149   0.0000000000
C          C       0.92806   0.51788   0.49515   0.0000000000
C          C       0.09454   0.33622   0.61809   0.0000000000
H          H       0.90799   0.53899   0.47494   0.0000000000
H          H       0.92683   0.52655   0.52978   0.0000000000
H          H       0.91740   0.48274   0.49497   0.0000000000
H          H       0.11730   0.31346   0.63521   0.0000000000
H          H       0.09385   0.32796   0.57799   0.0000000000
H          H       0.05992   0.33852   0.62942   0.0000000000
H          H       0.07261   0.26439   0.42786   0.0000000000
H          H       0.94071   0.31810   0.40015   0.0000000000
H          H       0.08751   0.32497   0.48025   0.0000000000
H          H       0.95694   0.37917   0.45242   0.0000000000
C          C       0.33328   0.92716   0.22892   0.0000000000
C          C       0.98410   0.64379   0.05795   0.0000000000
C          C       0.00472   0.71109   0.08925   0.0000000000
B          B       0.03383   0.60171   0.99762   0.0000000000
O          O       0.99720   0.57194   0.99039   0.0000000000
C          C       0.04933   0.70947   0.06788   0.0000000000
C          C       0.02342   0.64110   0.02668   0.0000000000
C          C       0.05287   0.67402   0.03708   0.0000000000
O          O       0.07339   0.60155   0.97740   0.0000000000
C          C       0.92857   0.48318   0.00569   0.0000000000
C          C       0.09423   0.66013   0.88848   0.0000000000
H          H       0.90818   0.46058   0.02850   0.0000000000
H          H       0.92919   0.47074   0.96895   0.0000000000
H          H       0.91444   0.51551   0.00878   0.0000000000
H          H       0.11588   0.68553   0.86484   0.0000000000
H          H       0.09576   0.67522   0.91885   0.0000000000
H          H       0.05998   0.66356   0.87054   0.0000000000
H          H       0.07126   0.73336   0.07314   0.0000000000
H          H       0.94337   0.67988   0.09865   0.0000000000
H          H       0.08685   0.67272   0.02046   0.0000000000
H          H       0.95831   0.62074   0.04843   0.0000000000
C          C       0.33439   0.07015   0.27199   0.0000000000
C          C       0.47950   0.14444   0.55158   0.0000000000
C          C       0.50697   0.21179   0.59043   0.0000000000
B          B       0.53315   0.10506   0.49914   0.0000000000
O          O       0.49561   0.06912   0.49085   0.0000000000
C          C       0.54704   0.20869   0.57046   0.0000000000
C          C       0.52388   0.14382   0.53010   0.0000000000
C          C       0.55330   0.17590   0.53683   0.0000000000
O          O       0.57800   0.10364   0.47594   0.0000000000
C          C       0.42995   0.98122   0.50373   0.0000000000
C          C       0.59473   0.16506   0.38314   0.0000000000
H          H       0.41086   0.96301   0.52705   0.0000000000
H          H       0.42658   0.97116   0.46983   0.0000000000
H          H       0.41877   0.01670   0.50737   0.0000000000
H          H       0.61548   0.18422   0.36546   0.0000000000
H          H       0.59431   0.17729   0.41817   0.0000000000
H          H       0.56370   0.16128   0.36924   0.0000000000
H          H       0.57365   0.23431   0.57185   0.0000000000
H          H       0.44243   0.17741   0.59981   0.0000000000
H          H       0.58673   0.17285   0.51798   0.0000000000
H          H       0.45887   0.11918   0.54685   0.0000000000
C          C       0.83251   0.57356   0.77379   0.0000000000
C          C       0.51503   0.35439   0.55405   0.0000000000
C          C       0.49531   0.28870   0.59558   0.0000000000
B          B       0.46587   0.39891   0.49829   0.0000000000
O          O       0.50108   0.43092   0.48871   0.0000000000
C          C       0.45269   0.29154   0.56568   0.0000000000
C          C       0.47718   0.35805   0.52962   0.0000000000
C          C       0.44310   0.32491   0.54044   0.0000000000
O          O       0.42327   0.39779   0.47510   0.0000000000
C          C       0.56845   0.51625   0.50295   0.0000000000
C          C       0.40403   0.33636   0.38490   0.0000000000
H          H       0.59416   0.53921   0.52978   0.0000000000
H          H       0.57253   0.52885   0.47151   0.0000000000
H          H       0.57945   0.48247   0.50990   0.0000000000
H          H       0.38712   0.31902   0.36541   0.0000000000
H          H       0.40629   0.32725   0.41829   0.0000000000
H          H       0.43848   0.34032   0.37522   0.0000000000
H          H       0.42557   0.26560   0.57277   0.0000000000
H          H       0.55407   0.31841   0.60294   0.0000000000
H          H       0.41332   0.32508   0.51796   0.0000000000
H          H       0.54248   0.38017   0.54841   0.0000000000
C          C       0.16414   0.93143   0.77057   0.0000000000
C          C       0.01726   0.85242   0.05446   0.0000000000
C          C       0.99050   0.79042   0.09384   0.0000000000
B          B       0.96604   0.89517   0.99821   0.0000000000
O          O       0.00185   0.93013   0.98821   0.0000000000
C          C       0.95384   0.79138   0.06652   0.0000000000
C          C       0.97659   0.85873   0.03018   0.0000000000
C          C       0.94655   0.82514   0.03856   0.0000000000
O          O       0.92187   0.89774   0.97250   0.0000000000
C          C       0.06930   0.01652   0.00485   0.0000000000
C          C       0.90312   0.83951   0.88647   0.0000000000
H          H       0.09251   0.03801   0.02405   0.0000000000
H          H       0.07033   0.02885   0.97035   0.0000000000
H          H       0.08342   0.98565   0.00570   0.0000000000
H          H       0.88298   0.81646   0.86443   0.0000000000
H          H       0.90844   0.82132   0.91992   0.0000000000
H          H       0.93972   0.83711   0.87188   0.0000000000
H          H       0.92928   0.76606   0.07241   0.0000000000
H          H       0.05751   0.82017   0.09710   0.0000000000
H          H       0.91286   0.82439   0.02264   0.0000000000
H          H       0.04079   0.87882   0.04999   0.0000000000
C          C       0.66484   0.42893   0.27175   0.0000000000
C          C       0.01577   0.14490   0.44505   0.0000000000
C          C       0.99309   0.20661   0.40795   0.0000000000
B          B       0.96834   0.10398   0.50326   0.0000000000
O          O       0.00577   0.07351   0.51125   0.0000000000
C          C       0.95199   0.21039   0.43323   0.0000000000
C          C       0.97694   0.14041   0.46929   0.0000000000
C          C       0.94749   0.17696   0.46272   0.0000000000
O          O       0.92281   0.10322   0.52743   0.0000000000
C          C       0.06792   0.98057   0.49358   0.0000000000
C          C       0.90499   0.16388   0.61331   0.0000000000
H          H       0.09030   0.96020   0.47209   0.0000000000
H          H       0.07363   0.97119   0.52690   0.0000000000
H          H       0.08071   0.01806   0.49182   0.0000000000
H          H       0.88250   0.18314   0.63777   0.0000000000
H          H       0.90649   0.17732   0.57875   0.0000000000
H          H       0.93976   0.16165   0.63191   0.0000000000
H          H       0.92586   0.23347   0.42947   0.0000000000
H          H       0.05594   0.17856   0.39905   0.0000000000
H          H       0.91378   0.17677   0.48240   0.0000000000
H          H       0.04390   0.11990   0.44938   0.0000000000
C          C       0.66508   0.56942   0.22721   0.0000000000
C          C       0.51893   0.64615   0.94334   0.0000000000
C          C       0.49189   0.70948   0.90537   0.0000000000
B          B       0.46666   0.60170   0.00108   0.0000000000
O          O       0.50085   0.56994   0.00873   0.0000000000
C          C       0.45403   0.71111   0.93124   0.0000000000
C          C       0.47350   0.64279   0.96800   0.0000000000
C          C       0.44413   0.67605   0.96130   0.0000000000
O          O       0.42321   0.60015   0.02225   0.0000000000
C          C       0.57036   0.48402   0.99453   0.0000000000
C          C       0.39959   0.66141   0.11421   0.0000000000
H          H       0.59056   0.45983   0.97616   0.0000000000
H          H       0.57034   0.47330   0.03122   0.0000000000
H          H       0.58064   0.51567   0.99344   0.0000000000
H          H       0.38205   0.68323   0.13417   0.0000000000
H          H       0.40535   0.67586   0.08056   0.0000000000
H          H       0.43735   0.66314   0.12759   0.0000000000
H          H       0.42499   0.73323   0.93035   0.0000000000
H          H       0.55728   0.68233   0.90167   0.0000000000
H          H       0.41283   0.67719   0.98138   0.0000000000
H          H       0.53989   0.61895   0.95312   0.0000000000
C          C       0.16757   0.07010   0.72627   0.0000000000
Si         Si      0.76211   0.73321   0.26736   0.0000000000
C          C       0.72933   0.77034   0.22787   0.0000000000
C          C       0.86568   0.63592   0.36395   0.0000000000
Si         Si      0.82727   0.67206   0.32462   0.0000000000
Si         Si      0.26299   0.23573   0.76655   0.0000000000
C          C       0.22887   0.27213   0.73040   0.0000000000
C          C       0.36055   0.13354   0.86545   0.0000000000
Si         Si      0.32897   0.17416   0.82774   0.0000000000
Si         Si      0.73469   0.26394   0.76410   0.0000000000
C          C       0.77025   0.22896   0.73254   0.0000000000
C          C       0.63592   0.36397   0.86433   0.0000000000
Si         Si      0.67287   0.32883   0.82701   0.0000000000
Si         Si      0.23652   0.76394   0.26348   0.0000000000
C          C       0.27223   0.72820   0.22490   0.0000000000
C          C       0.13521   0.86450   0.36478   0.0000000000
Si         Si      0.17172   0.82957   0.32949   0.0000000000
Si         Si      0.23630   0.23732   0.23546   0.0000000000
C          C       0.27307   0.26724   0.27404   0.0000000000
C          C       0.13656   0.13516   0.13543   0.0000000000
Si         Si      0.17291   0.17272   0.17172   0.0000000000
Si         Si      0.73762   0.73457   0.73582   0.0000000000
C          C       0.77352   0.77355   0.76968   0.0000000000
C          C       0.63444   0.63367   0.63302   0.0000000000
Si         Si      0.67278   0.67082   0.67154   0.0000000000
Si         Si      0.26517   0.76748   0.73699   0.0000000000
C          C       0.22671   0.72832   0.77184   0.0000000000
C          C       0.36501   0.86259   0.63600   0.0000000000
Si         Si      0.32839   0.82988   0.67324   0.0000000000
Si         Si      0.76186   0.26000   0.23497   0.0000000000
C          C       0.72840   0.23270   0.27127   0.0000000000
C          C       0.86294   0.36420   0.13508   0.0000000000
Si         Si      0.82867   0.33010   0.17003   0.0000000000
Si         Si      0.98551   0.01503   0.51646   0.0000000000
C          C       0.02148   0.98157   0.47975   0.0000000000
C          C       0.88317   0.11423   0.61534   0.0000000000
Si         Si      0.92320   0.07864   0.57898   0.0000000000
Si         Si      0.48589   0.51423   0.01766   0.0000000000
C          C       0.52136   0.47724   0.97812   0.0000000000
C          C       0.38271   0.61192   0.11361   0.0000000000
Si         Si      0.42025   0.57836   0.07290   0.0000000000
Si         Si      0.51371   0.98901   0.01467   0.0000000000
C          C       0.47890   0.02009   0.97839   0.0000000000
C          C       0.61435   0.88234   0.11040   0.0000000000
Si         Si      0.57673   0.92149   0.07676   0.0000000000
Si         Si      0.01635   0.48532   0.51557   0.0000000000
C          C       0.97806   0.52241   0.48164   0.0000000000
C          C       0.11478   0.38516   0.61362   0.0000000000
Si         Si      0.08047   0.42042   0.57875   0.0000000000
Si         Si      0.48929   0.48626   0.48351   0.0000000000
C          C       0.52217   0.52101   0.52123   0.0000000000
C          C       0.38604   0.38445   0.38740   0.0000000000
Si         Si      0.42222   0.42100   0.42494   0.0000000000
Si         Si      0.98624   0.98445   0.98696   0.0000000000
C          C       0.02070   0.02007   0.02209   0.0000000000
C          C       0.88530   0.88681   0.88522   0.0000000000
Si         Si      0.92121   0.92160   0.92213   0.0000000000
Si         Si      0.01376   0.51644   0.98437   0.0000000000
C          C       0.98130   0.47825   0.01972   0.0000000000
C          C       0.11618   0.61596   0.88596   0.0000000000
Si         Si      0.08042   0.57815   0.92008   0.0000000000
Si         Si      0.51514   0.01800   0.48209   0.0000000000
C          C       0.47709   0.97794   0.52160   0.0000000000
C          C       0.61563   0.11253   0.38649   0.0000000000
Si         Si      0.57805   0.08048   0.42150   0.0000000000
C          C       0.37554  -0.00064   0.24697   0.0000000000
C          C       0.12866   0.00159   0.75014   0.0000000000
C          C       0.62428   0.49999   0.25119   0.0000000000
C          C       0.87549   0.49858   0.74921   0.0000000000
C          C       0.24710   0.37580   0.00183   0.0000000000
C          C       0.75159   0.12367   0.00111   0.0000000000
C          C       0.24966   0.62514   0.49905   0.0000000000
C          C       0.74817   0.87208   0.49870   0.0000000000
C          C       0.00033   0.24645   0.37693   0.0000000000
C          C       0.00113   0.74945   0.12348   0.0000000000
C          C       0.49752   0.25220   0.62497   0.0000000000
C          C       0.49926   0.74934   0.87513   0.0000000000
