data_crystal
 
_cell_length_a    21.42370
_cell_length_b    21.42370
_cell_length_c    7.13100
_cell_angle_alpha 90.00000
_cell_angle_beta  90.00000
_cell_angle_gamma 120.00000
 
_symmetry_space_group_name_Hall 'P 1'
_symmetry_space_group_name_H-M  'P 1'
 
loop_
_symmetry_equiv_pos_as_xyz
 'x,y,z' 
 
loop_
_atom_site_label
_atom_site_type_symbol
_atom_site_fract_x
_atom_site_fract_y
_atom_site_fract_z
_atom_site_charge
C          C       0.56272  -0.00441   0.25502   0.0000000000
C          C      -0.00171   0.56736   0.24737   0.0000000000
C          C       0.43132   0.42936   0.25704   0.0000000000
C          C       0.43321  -0.00004   0.25819   0.0000000000
C          C      -0.00279   0.43350   0.23981   0.0000000000
C          C       0.56702   0.57013   0.26481   0.0000000000
C          C       0.57381   0.06805   0.25123   0.0000000000
C          C       0.93897   0.50255   0.24973   0.0000000000
C          C       0.49802   0.43586   0.24409   0.0000000000
C          C       0.43869   0.93966   0.24990   0.0000000000
C          C       0.06282   0.49649   0.26337   0.0000000000
C          C       0.50317   0.56572   0.24499   0.0000000000
C          C       0.06308   0.56232   0.25008   0.0000000000
C          C       0.49843   0.93145   0.25211   0.0000000000
C          C       0.43289   0.49592   0.25632   0.0000000000
C          C       0.93588   0.43274   0.25728   0.0000000000
C          C       0.50274   0.07234   0.25085   0.0000000000
C          C       0.56958   0.50170   0.23893   0.0000000000
O          O       0.62192   0.13106   0.24062   0.0000000000
O          O       0.86807   0.49040   0.25996   0.0000000000
O          O       0.51434   0.37900   0.26068   0.0000000000
O          O       0.37423   0.86201   0.23873   0.0000000000
O          O       0.13327   0.51287   0.24609   0.0000000000
O          O       0.48592   0.61851   0.24966   0.0000000000
O          O       0.12820   0.61843   0.25155   0.0000000000
O          O       0.49026   0.86874   0.25279   0.0000000000
O          O       0.37586   0.51053   0.24906   0.0000000000
O          O       0.86951   0.38178   0.26090   0.0000000000
O          O       0.51402   0.13159   0.25698   0.0000000000
O          O       0.62169   0.49166   0.25649   0.0000000000
C          C       0.62994   0.25892   0.24282   0.0000000000
C          C       0.74166   0.37079   0.25472   0.0000000000
C          C       0.62892   0.37230   0.25559   0.0000000000
C          C       0.37266   0.74427   0.24901   0.0000000000
C          C       0.26277   0.62899   0.24667   0.0000000000
C          C       0.37177   0.62729   0.24861   0.0000000000
B          B       0.58349   0.17423   0.25211   0.0000000000
B          B       0.82642   0.41054   0.25256   0.0000000000
B          B       0.58983   0.41270   0.24979   0.0000000000
B          B       0.41312   0.82301   0.24873   0.0000000000
B          B       0.17709   0.58899   0.25444   0.0000000000
B          B       0.41391   0.59055   0.24825   0.0000000000
C          C       0.29623   0.58940   0.25005   0.0000000000
C          C       0.40782   0.70404   0.25662   0.0000000000
C          C       0.29188   0.70274   0.24121   0.0000000000
C          C       0.70526   0.40948   0.25421   0.0000000000
C          C       0.58989   0.29590   0.24941   0.0000000000
C          C       0.70683   0.29520   0.24741   0.0000000000
H          H       0.38207   0.38523   0.24923   0.0000000000
H          H       0.61470  -0.00143   0.25443   0.0000000000
H          H      -0.00088   0.61591   0.25215   0.0000000000
H          H       0.61475   0.61686   0.25169   0.0000000000
H          H       0.39034  -0.00040   0.24848   0.0000000000
H          H       0.00559   0.38666   0.24965   0.0000000000
H          H       0.46379   0.73377   0.23695   0.0000000000
H          H       0.27008   0.73663   0.24913   0.0000000000
H          H       0.26953   0.53428   0.25094   0.0000000000
H          H       0.53414   0.26321   0.24987   0.0000000000
H          H       0.73303   0.26741   0.23978   0.0000000000
H          H       0.73344   0.46657   0.25517   0.0000000000
C          C       0.56912   0.00235   0.74998   0.0000000000
C          C       0.00335   0.56714   0.74910   0.0000000000
C          C       0.43301   0.43497   0.73493   0.0000000000
C          C       0.43668   0.00334   0.75803   0.0000000000
C          C      -0.00063   0.43281   0.74522   0.0000000000
C          C       0.56521   0.56513   0.76793   0.0000000000
C          C       0.56927   0.06651   0.74658   0.0000000000
C          C       0.93767   0.50397   0.74604   0.0000000000
C          C       0.49577   0.43462   0.73453   0.0000000000
C          C       0.43745   0.93421   0.74823   0.0000000000
C          C       0.06765   0.49939   0.73841   0.0000000000
C          C       0.49888   0.56612   0.74306   0.0000000000
C          C       0.06288   0.57074   0.74447   0.0000000000
C          C       0.50327   0.93524   0.75416   0.0000000000
C          C       0.43393   0.49846   0.74940   0.0000000000
C          C       0.93373   0.43491   0.74593   0.0000000000
C          C       0.49801   0.06361   0.75177   0.0000000000
C          C       0.56641   0.50277   0.75491   0.0000000000
O          O       0.62011   0.12931   0.75409   0.0000000000
O          O       0.86572   0.48779   0.75145   0.0000000000
O          O       0.51397   0.37929   0.74417   0.0000000000
O          O       0.37497   0.86117   0.75190   0.0000000000
O          O       0.13489   0.50928   0.74042   0.0000000000
O          O       0.48945   0.62034   0.75025   0.0000000000
O          O       0.13553   0.62516   0.74268   0.0000000000
O          O       0.48813   0.86528   0.75309   0.0000000000
O          O       0.37496   0.51062   0.75170   0.0000000000
O          O       0.86842   0.37673   0.75649   0.0000000000
O          O       0.51163   0.13667   0.74498   0.0000000000
O          O       0.62247   0.49001   0.73776   0.0000000000
C          C       0.62366   0.25671   0.74669   0.0000000000
C          C       0.74449   0.37086   0.75067   0.0000000000
C          C       0.62787   0.36848   0.74087   0.0000000000
C          C       0.37194   0.74512   0.74275   0.0000000000
C          C       0.26194   0.62861   0.75720   0.0000000000
C          C       0.37230   0.62860   0.74835   0.0000000000
B          B       0.59048   0.17739   0.75308   0.0000000000
B          B       0.82545   0.41309   0.73849   0.0000000000
B          B       0.58618   0.40780   0.74346   0.0000000000
B          B       0.41039   0.82510   0.75615   0.0000000000
B          B       0.17636   0.59090   0.76479   0.0000000000
B          B       0.41323   0.59262   0.75553   0.0000000000
C          C       0.29601   0.58969   0.75298   0.0000000000
C          C       0.41146   0.70790   0.74262   0.0000000000
C          C       0.29967   0.70539   0.75765   0.0000000000
C          C       0.70621   0.40875   0.74930   0.0000000000
C          C       0.59442   0.29824   0.74659   0.0000000000
C          C       0.70402   0.29608   0.76276   0.0000000000
H          H       0.38644   0.38439   0.75574   0.0000000000
H          H       0.61350   0.00161   0.74811   0.0000000000
H          H       0.00159   0.61793   0.75574   0.0000000000
H          H       0.61437   0.61629   0.75588   0.0000000000
H          H       0.38734   0.00041   0.74761   0.0000000000
H          H      -0.00183   0.38408   0.75267   0.0000000000
H          H       0.46508   0.73154   0.75372   0.0000000000
H          H       0.26453   0.73081   0.75604   0.0000000000
H          H       0.26680   0.53533   0.74945   0.0000000000
H          H       0.53285   0.26540   0.73687   0.0000000000
H          H       0.73072   0.26665   0.75299   0.0000000000
H          H       0.73063   0.46492   0.74482   0.0000000000
