data_crystal
 
_cell_length_a    21.48960
_cell_length_b    21.48960
_cell_length_c    8.31440
_cell_angle_alpha 90.00000
_cell_angle_beta  90.00000
_cell_angle_gamma 120.00000
 
_symmetry_space_group_name_Hall 'P 1'
_symmetry_space_group_name_H-M  'P 1'
 
loop_
_symmetry_equiv_pos_as_xyz
 'x,y,z' 
 
loop_
_atom_site_label
_atom_site_type_symbol
_atom_site_fract_x
_atom_site_fract_y
_atom_site_fract_z
_atom_site_charge
C          C       0.56561  -0.00133   0.25089   0.0000000000
C          C       1.00133   0.57315   0.25376   0.0000000000
C          C       0.43427   0.42967   0.25009   0.0000000000
C          C       0.42977   0.99983   0.24338   0.0000000000
C          C       0.00217   0.43206   0.25214   0.0000000000
C          C       0.56558   0.56467   0.24399   0.0000000000
C          C       0.56463   0.06562   0.24794   0.0000000000
C          C       0.93895   0.50441   0.25453   0.0000000000
C          C       0.49738   0.43457   0.24213   0.0000000000
C          C       0.43536   0.93780   0.25203   0.0000000000
C          C       0.05797   0.49486   0.25231   0.0000000000
C          C       0.49926   0.56231   0.24108   0.0000000000
O          O       0.62048   0.12807   0.24625   0.0000000000
O          O       0.87215   0.49229   0.25113   0.0000000000
O          O       0.51179   0.38061   0.24807   0.0000000000
O          O       0.38129   0.86656   0.25221   0.0000000000
O          O       0.12819   0.50667   0.25953   0.0000000000
O          O       0.48535   0.61608   0.25170   0.0000000000
C          C       0.06639   0.56770   0.24433   0.0000000000
C          C       0.43267   0.50143   0.25592   0.0000000000
C          C       0.50116   0.93333   0.24745   0.0000000000
C          C       0.93404   0.43317   0.25881   0.0000000000
C          C       0.56494   0.49550   0.25691   0.0000000000
C          C       0.49820   0.06275   0.26284   0.0000000000
O          O       0.13178   0.61939   0.25892   0.0000000000
O          O       0.37892   0.51361   0.25184   0.0000000000
O          O       0.48377   0.86228   0.26413   0.0000000000
O          O       0.87310   0.37852   0.26229   0.0000000000
O          O       0.62276   0.49035   0.26112   0.0000000000
O          O       0.51448   0.13044   0.25029   0.0000000000
C          C       0.63028   0.25830   0.25276   0.0000000000
C          C       0.74116   0.37070   0.25131   0.0000000000
C          C       0.62976   0.37547   0.25008   0.0000000000
C          C       0.36769   0.74262   0.24596   0.0000000000
C          C       0.25466   0.62481   0.25316   0.0000000000
C          C       0.36843   0.63272   0.25448   0.0000000000
B          B       0.58666   0.17921   0.24213   0.0000000000
B          B       0.82607   0.41220   0.24511   0.0000000000
B          B       0.59711   0.41910   0.24560   0.0000000000
B          B       0.40918   0.81989   0.24311   0.0000000000
B          B       0.17917   0.59087   0.25224   0.0000000000
B          B       0.40869   0.58548   0.25279   0.0000000000
C          C       0.29693   0.59345   0.23982   0.0000000000
C          C       0.41268   0.70427   0.25229   0.0000000000
C          C       0.29130   0.70650   0.25058   0.0000000000
C          C       0.70497   0.41082   0.24053   0.0000000000
C          C       0.58982   0.29373   0.25419   0.0000000000
C          C       0.70631   0.29493   0.24933   0.0000000000
H          H       0.46738   0.73576   0.24997   0.0000000000
H          H       0.26694   0.73276   0.24669   0.0000000000
H          H       0.26757   0.53562   0.24207   0.0000000000
H          H       0.53835   0.27216   0.25747   0.0000000000
H          H       0.73554   0.27284   0.25440   0.0000000000
H          H       0.73716   0.46620   0.24926   0.0000000000
H          H       0.63296   0.67039   0.13834   0.0000000000
H          H       0.33427   0.95930   0.14401   0.0000000000
H          H       0.03535   0.36381   0.13960   0.0000000000
H          H       0.36684   0.32537   0.15896   0.0000000000
H          H       0.67466   0.04032   0.15204   0.0000000000
H          H       0.96105   0.62758   0.13973   0.0000000000
H          H       0.37039   0.32953   0.37048   0.0000000000
H          H       0.66770   0.03688   0.35115   0.0000000000
H          H       0.96074   0.63018   0.35560   0.0000000000
H          H       0.62979   0.67227   0.34960   0.0000000000
H          H       0.32923   0.95854   0.35939   0.0000000000
H          H       0.03902   0.36959   0.35602   0.0000000000
H          H       0.70998   0.61496   0.14473   0.0000000000
H          H       0.39012   0.09491   0.14002   0.0000000000
H          H       0.90260   0.28657   0.12568   0.0000000000
H          H       0.28626   0.38657   0.13849   0.0000000000
H          H       0.62434   0.90345   0.14231   0.0000000000
H          H       0.09490   0.70903   0.14180   0.0000000000
H          H       0.29103   0.38567   0.36081   0.0000000000
H          H       0.61426   0.90403   0.36214   0.0000000000
H          H       0.09482   0.70852   0.35614   0.0000000000
H          H       0.70308   0.61349   0.34659   0.0000000000
H          H       0.38026   0.09532   0.36246   0.0000000000
H          H       0.90277   0.28959   0.36059   0.0000000000
H          H       0.76477   0.74677   0.36078   0.0000000000
H          H       0.25110   0.02012   0.36166   0.0000000000
H          H       0.98015   0.23064   0.35928   0.0000000000
H          H       0.22855   0.24728   0.35205   0.0000000000
H          H       0.75449   0.98509   0.34948   0.0000000000
H          H       0.02105   0.76728   0.34620   0.0000000000
H          H       0.23117   0.24768   0.14616   0.0000000000
H          H       0.74964   0.98171   0.13461   0.0000000000
H          H       0.01672   0.76669   0.14186   0.0000000000
H          H       0.76755   0.74866   0.14554   0.0000000000
H          H       0.24997   0.01852   0.13392   0.0000000000
H          H       0.98298   0.23353   0.14035   0.0000000000
C          C       0.63035   0.64002   0.24533   0.0000000000
C          C       0.35964   0.99087   0.24868   0.0000000000
C          C       0.00892   0.36468   0.25032   0.0000000000
C          C       0.36726   0.35633   0.24288   0.0000000000
C          C       0.64179   0.00623   0.25119   0.0000000000
C          C       0.99337   0.62992   0.23633   0.0000000000
C          C       0.70459   0.64205   0.26195   0.0000000000
C          C       0.35674   0.06612   0.24975   0.0000000000
C          C       0.93467   0.29052   0.24623   0.0000000000
C          C       0.28890   0.36005   0.24949   0.0000000000
C          C       0.64243   0.93526   0.25153   0.0000000000
C          C       0.06201   0.70763   0.25687   0.0000000000
C          C       0.76819   0.72099   0.25366   0.0000000000
C          C       0.27838   0.04627   0.24527   0.0000000000
C          C       0.95268   0.22931   0.24328   0.0000000000
C          C       0.23447   0.27859   0.26051   0.0000000000
C          C       0.72400   0.95029   0.25819   0.0000000000
C          C       0.04977   0.77132   0.24567   0.0000000000
H          H       0.82768   0.72660   0.24622   0.0000000000
H          H       0.27818   0.10255   0.25187   0.0000000000
H          H       0.90019   0.17503   0.25295   0.0000000000
H          H       0.17991   0.27902   0.25397   0.0000000000
H          H       0.72095   0.89833   0.25897   0.0000000000
H          H       0.09579   0.82358   0.23610   0.0000000000
C          C       0.57298   0.00320   0.74404   0.0000000000
C          C       1.00413   0.56676   0.75908   0.0000000000
C          C       0.43079   0.43054   0.75592   0.0000000000
C          C       0.43030   0.99777   0.74699   0.0000000000
C          C       0.00277   0.43547   0.75373   0.0000000000
C          C       0.56276   0.56432   0.75583   0.0000000000
C          C       0.56583   0.06740   0.74241   0.0000000000
C          C       0.93244   0.49893   0.74814   0.0000000000
C          C       0.49884   0.43527   0.76450   0.0000000000
C          C       0.44091   0.93745   0.73908   0.0000000000
C          C       0.06518   0.50459   0.75934   0.0000000000
C          C       0.50063   0.56546   0.73946   0.0000000000
O          O       0.61704   0.12986   0.75183   0.0000000000
O          O       0.86750   0.48756   0.74413   0.0000000000
O          O       0.51400   0.38244   0.75182   0.0000000000
O          O       0.38045   0.86868   0.74814   0.0000000000
O          O       0.13094   0.51335   0.75402   0.0000000000
O          O       0.48530   0.61626   0.75611   0.0000000000
C          C       0.06027   0.56420   0.75399   0.0000000000
C          C       0.43292   0.49844   0.75879   0.0000000000
C          C       0.50094   0.93242   0.74106   0.0000000000
C          C       0.93202   0.43256   0.75647   0.0000000000
C          C       0.56516   0.50571   0.76064   0.0000000000
C          C       0.49388   0.06350   0.75202   0.0000000000
O          O       0.13603   0.61903   0.76051   0.0000000000
O          O       0.38017   0.51238   0.74007   0.0000000000
O          O       0.48859   0.86821   0.74271   0.0000000000
O          O       0.86778   0.37804   0.75065   0.0000000000
O          O       0.61956   0.48781   0.75006   0.0000000000
O          O       0.51316   0.13187   0.76233   0.0000000000
C          C       0.62505   0.25372   0.74635   0.0000000000
C          C       0.74823   0.37358   0.75033   0.0000000000
C          C       0.62956   0.36908   0.74976   0.0000000000
C          C       0.37319   0.74641   0.74416   0.0000000000
C          C       0.25812   0.62977   0.74689   0.0000000000
C          C       0.37302   0.62865   0.75528   0.0000000000
B          B       0.58597   0.17860   0.75369   0.0000000000
B          B       0.82592   0.41549   0.75194   0.0000000000
B          B       0.58543   0.40963   0.75630   0.0000000000
B          B       0.41252   0.82641   0.74813   0.0000000000
B          B       0.18043   0.58877   0.75265   0.0000000000
B          B       0.41023   0.58290   0.75458   0.0000000000
C          C       0.29213   0.59142   0.74722   0.0000000000
C          C       0.40717   0.70225   0.74562   0.0000000000
C          C       0.29665   0.70465   0.75155   0.0000000000
C          C       0.69973   0.40547   0.75546   0.0000000000
C          C       0.59353   0.29542   0.75735   0.0000000000
C          C       0.70872   0.30011   0.75016   0.0000000000
H          H       0.46391   0.73000   0.74718   0.0000000000
H          H       0.26913   0.73338   0.75405   0.0000000000
H          H       0.26852   0.54051   0.75469   0.0000000000
H          H       0.53629   0.26858   0.75512   0.0000000000
H          H       0.73142   0.26457   0.75144   0.0000000000
H          H       0.73197   0.46340   0.74239   0.0000000000
H          H       0.63395   0.67115   0.64295   0.0000000000
H          H       0.33029   0.96275   0.64234   0.0000000000
H          H       0.03258   0.36724   0.63904   0.0000000000
H          H       0.37474   0.32948   0.64122   0.0000000000
H          H       0.66795   0.03651   0.64463   0.0000000000
H          H       0.96470   0.63310   0.63909   0.0000000000
H          H       0.37233   0.33382   0.85820   0.0000000000
H          H       0.66921   0.03797   0.86162   0.0000000000
H          H       0.96468   0.63323   0.85237   0.0000000000
H          H       0.63155   0.67530   0.85554   0.0000000000
H          H       0.32841   0.96102   0.85652   0.0000000000
H          H       0.03620   0.36986   0.85778   0.0000000000
H          H       0.71080   0.61461   0.65228   0.0000000000
H          H       0.38327   0.09209   0.62742   0.0000000000
H          H       0.90572   0.28753   0.64126   0.0000000000
H          H       0.29249   0.38660   0.64158   0.0000000000
H          H       0.61479   0.90150   0.63691   0.0000000000
H          H       0.09980   0.71320   0.64575   0.0000000000
H          H       0.28958   0.38593   0.86815   0.0000000000
H          H       0.61036   0.90394   0.84447   0.0000000000
H          H       0.09519   0.71283   0.86923   0.0000000000
H          H       0.71052   0.61157   0.86041   0.0000000000
H          H       0.38391   0.09208   0.86470   0.0000000000
H          H       0.90338   0.29089   0.84488   0.0000000000
H          H       0.77006   0.75227   0.85360   0.0000000000
H          H       0.24996   0.02012   0.85997   0.0000000000
H          H       0.98265   0.23127   0.85277   0.0000000000
H          H       0.22758   0.24453   0.84908   0.0000000000
H          H       0.75032   0.97959   0.84882   0.0000000000
H          H       0.01774   0.77257   0.85314   0.0000000000
H          H       0.23130   0.24719   0.63887   0.0000000000
H          H       0.75087   0.97989   0.64279   0.0000000000
H          H       0.01683   0.76343   0.63356   0.0000000000
H          H       0.76795   0.75029   0.64320   0.0000000000
H          H       0.25173   0.02074   0.64236   0.0000000000
H          H       0.98897   0.23289   0.64275   0.0000000000
C          C       0.63534   0.64308   0.74384   0.0000000000
C          C       0.36200   0.99722   0.75410   0.0000000000
C          C       0.00612   0.36365   0.73968   0.0000000000
C          C       0.36332   0.35678   0.74877   0.0000000000
C          C       0.64183   0.00704   0.74880   0.0000000000
C          C       0.98824   0.62804   0.75489   0.0000000000
C          C       0.70594   0.64340   0.75568   0.0000000000
C          C       0.35993   0.06818   0.74950   0.0000000000
C          C       0.93541   0.29109   0.75573   0.0000000000
C          C       0.29358   0.35769   0.74249   0.0000000000
C          C       0.64486   0.93595   0.73815   0.0000000000
C          C       0.06607   0.70953   0.75359   0.0000000000
C          C       0.76969   0.72430   0.75804   0.0000000000
C          C       0.27584   0.04304   0.75824   0.0000000000
C          C       0.94953   0.22775   0.75475   0.0000000000
C          C       0.22888   0.27701   0.75402   0.0000000000
C          C       0.72360   0.95020   0.75403   0.0000000000
C          C       0.04601   0.77142   0.74049   0.0000000000
H          H       0.81835   0.72309   0.74973   0.0000000000
H          H       0.27733   0.09932   0.74331   0.0000000000
H          H       0.89806   0.17926   0.75430   0.0000000000
H          H       0.17504   0.27559   0.75119   0.0000000000
H          H       0.72527   0.90175   0.74459   0.0000000000
H          H       0.09933   0.81877   0.75521   0.0000000000
