data_crystal
 
_cell_length_a    21.69110
_cell_length_b    21.70990
_cell_length_c    8.22240
_cell_angle_alpha 90.00000
_cell_angle_beta  90.00000
_cell_angle_gamma 120.17250
 
_symmetry_space_group_name_Hall 'P 1'
_symmetry_space_group_name_H-M  'P 1'
 
loop_
_symmetry_equiv_pos_as_xyz
 'x,y,z' 
 
loop_
_atom_site_label
_atom_site_type_symbol
_atom_site_fract_x
_atom_site_fract_y
_atom_site_fract_z
_atom_site_charge
C          C       0.57461   0.00519   0.25111   0.0000000000
C          C       0.99546   0.56675   0.25001   0.0000000000
C          C       0.43462   0.42864   0.24306   0.0000000000
C          C       0.42696   0.99441   0.24732   0.0000000000
C          C       0.00466   0.43720   0.25216   0.0000000000
C          C       0.56932   0.57416   0.24060   0.0000000000
C          C       0.56337   0.06259   0.24578   0.0000000000
C          C       0.93363   0.49660   0.25795   0.0000000000
C          C       0.49812   0.43483   0.24653   0.0000000000
C          C       0.43906   0.93594   0.26222   0.0000000000
C          C       0.05922   0.49573   0.24819   0.0000000000
C          C       0.50276   0.56845   0.24279   0.0000000000
O          O       0.61859   0.13636   0.24966   0.0000000000
O          O       0.87117   0.49477   0.24885   0.0000000000
O          O       0.51369   0.38080   0.25542   0.0000000000
O          O       0.37809   0.86162   0.24831   0.0000000000
O          O       0.13635   0.51370   0.25457   0.0000000000
O          O       0.48663   0.62122   0.23415   0.0000000000
C          C       0.07008   0.57223   0.24468   0.0000000000
C          C       0.43738   0.50213   0.24104   0.0000000000
C          C       0.50460   0.93635   0.25579   0.0000000000
C          C       0.93857   0.43981   0.25392   0.0000000000
C          C       0.57261   0.50436   0.26060   0.0000000000
C          C       0.49985   0.05935   0.25094   0.0000000000
O          O       0.14198   0.62842   0.25775   0.0000000000
O          O       0.37439   0.51202   0.24888   0.0000000000
O          O       0.48922   0.86348   0.24417   0.0000000000
O          O       0.86522   0.37648   0.24175   0.0000000000
O          O       0.62986   0.49316   0.24823   0.0000000000
O          O       0.51274   0.13815   0.24841   0.0000000000
C          C       0.63210   0.25686   0.25270   0.0000000000
C          C       0.73940   0.36785   0.26069   0.0000000000
C          C       0.62845   0.37117   0.24103   0.0000000000
C          C       0.37676   0.74930   0.25915   0.0000000000
C          C       0.26030   0.62999   0.25033   0.0000000000
C          C       0.37180   0.63272   0.25043   0.0000000000
B          B       0.58917   0.18144   0.25639   0.0000000000
B          B       0.82767   0.41552   0.25402   0.0000000000
B          B       0.59117   0.41702   0.25287   0.0000000000
B          B       0.41923   0.82385   0.25003   0.0000000000
B          B       0.17993   0.59501   0.25706   0.0000000000
B          B       0.40784   0.58525   0.24536   0.0000000000
C          C       0.29608   0.59361   0.25890   0.0000000000
C          C       0.41317   0.70375   0.25297   0.0000000000
C          C       0.29953   0.70661   0.25498   0.0000000000
C          C       0.70512   0.40784   0.25207   0.0000000000
C          C       0.58929   0.29527   0.24871   0.0000000000
C          C       0.70498   0.29715   0.25626   0.0000000000
H          H       0.46124   0.73000   0.24889   0.0000000000
H          H       0.27086   0.72729   0.24335   0.0000000000
H          H       0.26951   0.53658   0.26516   0.0000000000
H          H       0.53123   0.26558   0.24417   0.0000000000
H          H       0.73030   0.26682   0.25878   0.0000000000
H          H       0.73554   0.46568   0.24429   0.0000000000
H          H       0.71754   0.10438   0.34043   0.0000000000
H          H       0.63460   0.96857   0.34757   0.0000000000
H          H       0.71427   0.61742   0.15035   0.0000000000
H          H       0.63426   0.67136   0.14702   0.0000000000
H          H       0.28922   0.38336   0.14895   0.0000000000
H          H       0.36794   0.32638   0.14773   0.0000000000
H          H       0.38262   0.09211   0.14106   0.0000000000
H          H       0.33125   0.95968   0.13157   0.0000000000
H          H       0.91209   0.29141   0.14522   0.0000000000
H          H       0.03828   0.36713   0.15250   0.0000000000
H          H       0.09126   0.70819   0.13748   0.0000000000
H          H       0.96400   0.63727   0.14625   0.0000000000
H          H       0.71613   0.10670   0.14415   0.0000000000
H          H       0.64110   0.97434   0.14337   0.0000000000
H          H       0.70611   0.62000   0.35279   0.0000000000
H          H       0.63509   0.67690   0.35103   0.0000000000
H          H       0.28677   0.38085   0.35931   0.0000000000
H          H       0.36543   0.32661   0.37082   0.0000000000
H          H       0.38160   0.09419   0.35583   0.0000000000
H          H       0.32666   0.95237   0.35581   0.0000000000
H          H       0.90252   0.29016   0.34877   0.0000000000
H          H       0.03862   0.37160   0.35948   0.0000000000
H          H       0.09668   0.70989   0.35207   0.0000000000
H          H       0.96035   0.63162   0.36078   0.0000000000
C          C       0.71494   0.07226   0.24078   0.0000000000
C          C       0.64039   0.00085   0.24298   0.0000000000
H          H       0.75563   0.05955   0.24513   0.0000000000
C          C       0.70860   0.64533   0.25351   0.0000000000
C          C       0.63309   0.64247   0.23617   0.0000000000
H          H       0.75092   0.70432   0.24976   0.0000000000
C          C       0.29712   0.35345   0.24825   0.0000000000
C          C       0.36971   0.35416   0.25203   0.0000000000
H          H       0.25149   0.30165   0.24950   0.0000000000
C          C       0.35793   0.06068   0.23895   0.0000000000
C          C       0.35564   0.98907   0.25190   0.0000000000
H          H       0.29987   0.04814   0.25313   0.0000000000
C          C       0.94039   0.29582   0.24721   0.0000000000
C          C       0.01404   0.36916   0.25414   0.0000000000
H          H       0.95089   0.25641   0.26051   0.0000000000
C          C       0.06318   0.70793   0.25415   0.0000000000
C          C       0.98814   0.63589   0.25407   0.0000000000
H          H       0.05770   0.75399   0.25170   0.0000000000
C          C       0.57633   0.00675   0.75738   0.0000000000
C          C       0.99927   0.56998   0.74920   0.0000000000
C          C       0.43632   0.42839   0.76000   0.0000000000
C          C       0.42924   0.99468   0.75487   0.0000000000
C          C       0.00165   0.42886   0.75456   0.0000000000
C          C       0.57418   0.57270   0.75503   0.0000000000
C          C       0.56236   0.06085   0.74899   0.0000000000
C          C       0.93032   0.49612   0.74544   0.0000000000
C          C       0.50016   0.43264   0.75935   0.0000000000
C          C       0.43501   0.93465   0.75705   0.0000000000
C          C       0.06172   0.49885   0.75575   0.0000000000
C          C       0.50522   0.56880   0.73835   0.0000000000
O          O       0.61900   0.13709   0.75670   0.0000000000
O          O       0.86567   0.48898   0.75225   0.0000000000
O          O       0.51718   0.37718   0.74892   0.0000000000
O          O       0.38373   0.86694   0.74956   0.0000000000
O          O       0.12767   0.50962   0.74824   0.0000000000
O          O       0.48567   0.62102   0.74938   0.0000000000
C          C       0.06332   0.56762   0.75051   0.0000000000
C          C       0.43383   0.49733   0.74159   0.0000000000
C          C       0.50058   0.93481   0.76590   0.0000000000
C          C       0.93623   0.42962   0.75969   0.0000000000
C          C       0.56623   0.49919   0.73355   0.0000000000
C          C       0.50265   0.06946   0.74680   0.0000000000
O          O       0.14148   0.62888   0.75445   0.0000000000
O          O       0.37567   0.51190   0.75634   0.0000000000
O          O       0.48685   0.86528   0.76094   0.0000000000
O          O       0.86706   0.37431   0.74375   0.0000000000
O          O       0.62825   0.49143   0.74566   0.0000000000
O          O       0.50777   0.13080   0.74581   0.0000000000
C          C       0.63204   0.26026   0.74116   0.0000000000
C          C       0.74491   0.37351   0.76501   0.0000000000
C          C       0.63151   0.37211   0.75592   0.0000000000
C          C       0.37304   0.74627   0.74620   0.0000000000
C          C       0.26001   0.63602   0.75406   0.0000000000
C          C       0.37415   0.63025   0.75246   0.0000000000
B          B       0.59269   0.18094   0.73900   0.0000000000
B          B       0.82358   0.41057   0.74250   0.0000000000
B          B       0.59228   0.41289   0.74740   0.0000000000
B          B       0.41187   0.81951   0.74303   0.0000000000
B          B       0.18349   0.59078   0.74390   0.0000000000
B          B       0.41342   0.59095   0.76345   0.0000000000
C          C       0.30089   0.59519   0.74166   0.0000000000
C          C       0.41125   0.70427   0.76240   0.0000000000
C          C       0.28976   0.70362   0.75112   0.0000000000
C          C       0.70561   0.41239   0.75586   0.0000000000
C          C       0.59235   0.29627   0.75560   0.0000000000
C          C       0.71029   0.29813   0.74813   0.0000000000
H          H       0.46584   0.73242   0.76180   0.0000000000
H          H       0.27656   0.73831   0.75679   0.0000000000
H          H       0.26758   0.53617   0.75184   0.0000000000
H          H       0.54004   0.27018   0.74887   0.0000000000
H          H       0.72940   0.27128   0.74540   0.0000000000
H          H       0.73402   0.46644   0.75099   0.0000000000
H          H       0.71720   0.10507   0.86229   0.0000000000
H          H       0.63757   0.97180   0.85355   0.0000000000
H          H       0.71339   0.62085   0.64726   0.0000000000
H          H       0.62872   0.67369   0.64849   0.0000000000
H          H       0.29000   0.38158   0.65196   0.0000000000
H          H       0.37293   0.32440   0.64424   0.0000000000
H          H       0.37923   0.08938   0.64316   0.0000000000
H          H       0.32942   0.95860   0.64046   0.0000000000
H          H       0.90877   0.29354   0.64682   0.0000000000
H          H       0.04210   0.37094   0.63607   0.0000000000
H          H       0.09256   0.70760   0.64772   0.0000000000
H          H       0.95800   0.62971   0.64059   0.0000000000
H          H       0.71407   0.10231   0.65030   0.0000000000
H          H       0.64071   0.96943   0.64129   0.0000000000
H          H       0.71047   0.61676   0.84904   0.0000000000
H          H       0.62970   0.67355   0.85821   0.0000000000
H          H       0.29092   0.38606   0.85854   0.0000000000
H          H       0.37093   0.32753   0.84305   0.0000000000
H          H       0.38386   0.09377   0.85139   0.0000000000
H          H       0.32362   0.95654   0.85413   0.0000000000
H          H       0.90722   0.29274   0.84414   0.0000000000
H          H       0.04434   0.37263   0.85725   0.0000000000
H          H       0.09129   0.70917   0.84919   0.0000000000
H          H       0.95956   0.63406   0.85356   0.0000000000
C          C       0.71200   0.07010   0.75082   0.0000000000
C          C       0.63895   0.00098   0.74933   0.0000000000
H          H       0.75584   0.06530   0.75976   0.0000000000
C          C       0.70663   0.64548   0.75941   0.0000000000
C          C       0.63629   0.64481   0.75188   0.0000000000
H          H       0.74614   0.69785   0.75099   0.0000000000
C          C       0.29155   0.35461   0.75702   0.0000000000
C          C       0.36609   0.35796   0.75307   0.0000000000
H          H       0.24825   0.30035   0.75008   0.0000000000
C          C       0.35417   0.06137   0.75104   0.0000000000
C          C       0.36103   0.99359   0.74799   0.0000000000
H          H       0.30014   0.04829   0.74779   0.0000000000
C          C       0.94195   0.29568   0.74625   0.0000000000
C          C       0.01025   0.36906   0.75328   0.0000000000
H          H       0.94712   0.24759   0.75142   0.0000000000
C          C       0.05986   0.70710   0.76284   0.0000000000
C          C       0.99021   0.63392   0.75431   0.0000000000
H          H       0.05330   0.74871   0.74769   0.0000000000
