data_crystal
 
_cell_length_a    21.48990
_cell_length_b    21.49180
_cell_length_c    8.03720
_cell_angle_alpha 90.00000
_cell_angle_beta  90.00000
_cell_angle_gamma 119.99150
 
_symmetry_space_group_name_Hall 'P 1'
_symmetry_space_group_name_H-M  'P 1'
 
loop_
_symmetry_equiv_pos_as_xyz
 'x,y,z' 
 
loop_
_atom_site_label
_atom_site_type_symbol
_atom_site_fract_x
_atom_site_fract_y
_atom_site_fract_z
_atom_site_charge
C          C       0.56709   0.00186   0.25153   0.0000000000
C          C       1.00403   0.56884   0.24886   0.0000000000
C          C       0.43067   0.43209   0.25117   0.0000000000
C          C       0.43192   0.00137   0.24486   0.0000000000
C          C       0.56643   0.56545   0.24278   0.0000000000
C          C       0.56628   0.06720   0.25205   0.0000000000
C          C       0.93749   0.50091   0.23899   0.0000000000
C          C       0.49687   0.43364   0.24915   0.0000000000
C          C       0.43070   0.93389   0.25023   0.0000000000
C          C       0.06325   0.49583   0.26000   0.0000000000
C          C       0.49911   0.56143   0.25400   0.0000000000
O          O       0.62186   0.13441   0.24625   0.0000000000
O          O       0.86898   0.49067   0.25962   0.0000000000
O          O       0.51186   0.37763   0.25149   0.0000000000
O          O       0.37778   0.86516   0.25389   0.0000000000
O          O       0.12974   0.50897   0.24949   0.0000000000
O          O       0.48910   0.62015   0.25886   0.0000000000
C          C       0.06282   0.55923   0.24891   0.0000000000
C          C       0.43699   0.50283   0.25332   0.0000000000
C          C       0.49721   0.93225   0.24212   0.0000000000
C          C       0.93974   0.43510   0.25063   0.0000000000
C          C       0.56179   0.50390   0.24919   0.0000000000
C          C       0.49821   0.06385   0.24963   0.0000000000
O          O       0.13635   0.62229   0.26411   0.0000000000
O          O       0.38184   0.51201   0.24632   0.0000000000
O          O       0.49309   0.87347   0.24819   0.0000000000
O          O       0.87035   0.37736   0.25041   0.0000000000
O          O       0.62254   0.48846   0.25248   0.0000000000
O          O       0.51388   0.13011   0.25108   0.0000000000
C          C       0.62658   0.25836   0.24774   0.0000000000
C          C       0.74463   0.37501   0.26364   0.0000000000
C          C       0.62509   0.37254   0.25453   0.0000000000
C          C       0.37048   0.74179   0.25305   0.0000000000
C          C       0.25268   0.62902   0.24263   0.0000000000
C          C       0.37655   0.63560   0.24668   0.0000000000
B          B       0.59201   0.17648   0.25150   0.0000000000
B          B       0.82257   0.40833   0.25044   0.0000000000
B          B       0.58298   0.41075   0.25078   0.0000000000
B          B       0.41026   0.82548   0.25324   0.0000000000
B          B       0.17723   0.58390   0.25336   0.0000000000
B          B       0.41513   0.59127   0.24813   0.0000000000
C          C       0.29939   0.59309   0.25828   0.0000000000
C          C       0.40894   0.70018   0.24957   0.0000000000
C          C       0.29943   0.70544   0.25722   0.0000000000
C          C       0.70552   0.41622   0.24440   0.0000000000
C          C       0.58998   0.29392   0.24859   0.0000000000
C          C       0.70201   0.29236   0.25336   0.0000000000
H          H       0.46463   0.73363   0.26183   0.0000000000
H          H       0.27104   0.73128   0.25739   0.0000000000
H          H       0.27093   0.53234   0.24382   0.0000000000
H          H       0.53520   0.26643   0.25812   0.0000000000
H          H       0.73843   0.27589   0.24270   0.0000000000
H          H       0.73065   0.46369   0.25422   0.0000000000
H          H       0.03555   0.36299   0.14319   0.0000000000
H          H       0.02683   0.35672   0.35603   0.0000000000
H          H       0.36430   0.03341   0.34498   0.0000000000
H          H       0.36004   0.02593   0.13734   0.0000000000
H          H       0.35942   0.32878   0.14614   0.0000000000
H          H       0.36206   0.33221   0.36856   0.0000000000
H          H       0.66676   0.02639   0.13894   0.0000000000
H          H       0.67286   0.03077   0.36385   0.0000000000
H          H       0.66086   0.63793   0.35476   0.0000000000
H          H       0.66186   0.63252   0.13890   0.0000000000
H          H       0.97243   0.63986   0.14730   0.0000000000
H          H       0.96712   0.63328   0.36581   0.0000000000
C          C       0.63808   0.00086   0.25770   0.0000000000
C          C       0.99878   0.63731   0.24517   0.0000000000
C          C       0.36925   0.36390   0.24909   0.0000000000
H          H       0.94648   0.31542   0.24433   0.0000000000
C          C       0.36538   0.00138   0.26068   0.0000000000
H          H       0.31959   0.95062   0.25768   0.0000000000
H          H       0.31735   0.36905   0.24039   0.0000000000
C          C       0.00736   0.36751   0.24918   0.0000000000
H          H       0.62702   0.94383   0.24430   0.0000000000
C          C       0.63677   0.63873   0.24526   0.0000000000
H          H       0.63291   0.67865   0.24557   0.0000000000
H          H       0.05418   0.68319   0.26174   0.0000000000
C          C       0.00167   0.43433   0.25080   0.0000000000
C          C       0.56779  -0.00121   0.75336   0.0000000000
C          C       0.99641   0.56829   0.75231   0.0000000000
C          C       0.43104   0.43484   0.75278   0.0000000000
C          C       0.43687   0.00404   0.76082   0.0000000000
C          C       0.56575   0.56688   0.75591   0.0000000000
C          C       0.56408   0.06308   0.74813   0.0000000000
C          C       0.93506   0.50115   0.74346   0.0000000000
C          C       0.50006   0.43750   0.74953   0.0000000000
C          C       0.43804   0.93728   0.74069   0.0000000000
C          C       0.06541   0.50094   0.75054   0.0000000000
C          C       0.50288   0.56472   0.74781   0.0000000000
O          O       0.62026   0.13053   0.75681   0.0000000000
O          O       0.86627   0.49002   0.75571   0.0000000000
O          O       0.50768   0.37859   0.75172   0.0000000000
O          O       0.37504   0.86545   0.75958   0.0000000000
O          O       0.13106   0.50695   0.74028   0.0000000000
O          O       0.49037   0.62344   0.74101   0.0000000000
C          C       0.06554   0.56428   0.74556   0.0000000000
C          C       0.43777   0.49948   0.74196   0.0000000000
C          C       0.49820   0.93653   0.75103   0.0000000000
C          C       0.93680   0.43535   0.75059   0.0000000000
C          C       0.55885   0.49897   0.75445   0.0000000000
C          C       0.49848   0.06653   0.73475   0.0000000000
O          O       0.13705   0.62610   0.74212   0.0000000000
O          O       0.37569   0.51171   0.74590   0.0000000000
O          O       0.48867   0.86862   0.75147   0.0000000000
O          O       0.86914   0.37744   0.75069   0.0000000000
O          O       0.62070   0.49082   0.75142   0.0000000000
O          O       0.50990   0.12906   0.74888   0.0000000000
C          C       0.62863   0.26013   0.75684   0.0000000000
C          C       0.74602   0.37744   0.75477   0.0000000000
C          C       0.62820   0.37217   0.75544   0.0000000000
C          C       0.37215   0.74232   0.73452   0.0000000000
C          C       0.25936   0.62702   0.75835   0.0000000000
C          C       0.37292   0.63150   0.75725   0.0000000000
B          B       0.58544   0.17963   0.74583   0.0000000000
B          B       0.82037   0.40982   0.75593   0.0000000000
B          B       0.58734   0.41308   0.75416   0.0000000000
B          B       0.41304   0.82127   0.74912   0.0000000000
B          B       0.18138   0.59099   0.74968   0.0000000000
B          B       0.40748   0.59176   0.73936   0.0000000000
C          C       0.30020   0.59736   0.75460   0.0000000000
C          C       0.40943   0.70152   0.75511   0.0000000000
C          C       0.29617   0.70510   0.75176   0.0000000000
C          C       0.70091   0.40611   0.76109   0.0000000000
C          C       0.59032   0.29722   0.76190   0.0000000000
C          C       0.70425   0.29288   0.74090   0.0000000000
H          H       0.46797   0.73497   0.74573   0.0000000000
H          H       0.26432   0.72879   0.74820   0.0000000000
H          H       0.26924   0.53753   0.75100   0.0000000000
H          H       0.53331   0.26276   0.73962   0.0000000000
H          H       0.73587   0.26996   0.75449   0.0000000000
H          H       0.73378   0.46297   0.75749   0.0000000000
H          H       0.03278   0.36198   0.63397   0.0000000000
H          H       0.02984   0.36117   0.85379   0.0000000000
H          H       0.36631   0.03317   0.85917   0.0000000000
H          H       0.36203   0.03123   0.64077   0.0000000000
H          H       0.36046   0.32868   0.64702   0.0000000000
H          H       0.36213   0.33351   0.86669   0.0000000000
H          H       0.67285   0.02622   0.63822   0.0000000000
H          H       0.66808   0.02660   0.85710   0.0000000000
H          H       0.66643   0.63617   0.85818   0.0000000000
H          H       0.67323   0.64184   0.64188   0.0000000000
H          H       0.97153   0.63780   0.63912   0.0000000000
H          H       0.96970   0.63962   0.86136   0.0000000000
C          C       0.63575  -0.00137   0.73778   0.0000000000
C          C       0.99573   0.63779   0.75059   0.0000000000
C          C       0.36675   0.36361   0.75210   0.0000000000
H          H       0.94769   0.31885   0.74634   0.0000000000
C          C       0.36232  -0.00010   0.74562   0.0000000000
H          H       0.32142   0.94901   0.75279   0.0000000000
H          H       0.31595   0.37273   0.73761   0.0000000000
C          C       0.00499   0.36487   0.76213   0.0000000000
H          H       0.63040   0.94506   0.73864   0.0000000000
C          C       0.63537   0.63324   0.75163   0.0000000000
H          H       0.62656   0.67838   0.73666   0.0000000000
H          H       0.05144   0.68293   0.74830   0.0000000000
C          C      -0.00087   0.42976   0.74347   0.0000000000
