data_crystal
 
_cell_length_a    14.57400
_cell_length_b    14.57400
_cell_length_c    6.80800
_cell_angle_alpha 90.00000
_cell_angle_beta  90.00000
_cell_angle_gamma 120.00000
 
_symmetry_space_group_name_Hall 'P 1'
_symmetry_space_group_name_H-M  'P 1'
 
loop_
_symmetry_equiv_pos_as_xyz
 'x,y,z' 
 
loop_
_atom_site_label
_atom_site_type_symbol
_atom_site_fract_x
_atom_site_fract_y
_atom_site_fract_z
_atom_site_charge
C          C       0.62332   0.39101   0.24933   0.0000000000
C          C       0.55594   0.44501   0.24318   0.0000000000
C          C       0.61229   0.22354   0.24949   0.0000000000
C          C       0.55938   0.11206   0.24868   0.0000000000
C          C       0.77227   0.38362   0.25229   0.0000000000
C          C       0.88544   0.44502   0.24990   0.0000000000
C          C       0.37985   0.61145   0.24332   0.0000000000
C          C       0.44963   0.56169   0.24979   0.0000000000
C          C       0.39120   0.77161   0.24533   0.0000000000
C          C       0.44660   0.88695   0.26376   0.0000000000
C          C       0.23275   0.61854   0.25371   0.0000000000
C          C       0.11691   0.55924   0.24586   0.0000000000
C          C       0.61523   0.55683   0.24222   0.0000000000
H          H       0.59394   0.70114   0.26787   0.0000000000
C          C       0.43802   0.04285   0.25838   0.0000000000
H          H       0.29603   0.89626   0.25285   0.0000000000
C          C       0.94759   0.39357   0.23839   0.0000000000
H          H       0.10567   0.40534   0.24965   0.0000000000
C          C       0.39212   0.44507   0.24564   0.0000000000
H          H       0.40256   0.29712   0.24527   0.0000000000
C          C       0.55597   0.94997   0.26733   0.0000000000
H          H       0.70254   0.10085   0.25271   0.0000000000
C          C       0.05715   0.60450   0.24452   0.0000000000
H          H       0.90248   0.59005   0.24379   0.0000000000
C          C       0.55191   0.61541   0.25351   0.0000000000
H          H       0.69085   0.59549   0.25247   0.0000000000
C          C       0.05177   0.43990   0.24999   0.0000000000
H          H       0.91036   0.30833   0.24445   0.0000000000
C          C       0.38984   0.94399   0.25639   0.0000000000
H          H       0.40240   0.09983   0.26077   0.0000000000
C          C       0.43783   0.37757   0.25789   0.0000000000
H          H       0.30337   0.40651   0.24380   0.0000000000
C          C       0.94729   0.56021   0.25307   0.0000000000
H          H       0.09971   0.69371   0.26150   0.0000000000
C          C       0.61403   0.05581   0.25331   0.0000000000
H          H       0.59535   0.89666   0.24661   0.0000000000
N          N       0.43999   0.71521   0.25130   0.0000000000
N          N       0.28036   0.72126   0.25302   0.0000000000
N          N       0.27608   0.55614   0.24580   0.0000000000
N          N       0.55680   0.27670   0.25807   0.0000000000
N          N       0.71729   0.27575   0.24961   0.0000000000
N          N       0.72252   0.44253   0.24492   0.0000000000
C          C       0.60885   0.38110   0.75488   0.0000000000
C          C       0.55631   0.44660   0.75531   0.0000000000
C          C       0.61500   0.22654   0.74452   0.0000000000
C          C       0.56326   0.11569   0.75641   0.0000000000
C          C       0.77100   0.38355   0.73272   0.0000000000
C          C       0.88690   0.43927   0.74809   0.0000000000
C          C       0.38448   0.61635   0.74087   0.0000000000
C          C       0.44853   0.55783   0.75999   0.0000000000
C          C       0.38380   0.77128   0.74762   0.0000000000
C          C       0.44814   0.89287   0.75530   0.0000000000
C          C       0.22697   0.61580   0.75156   0.0000000000
C          C       0.11477   0.55744   0.75678   0.0000000000
C          C       0.60499   0.55023   0.74296   0.0000000000
H          H       0.60160   0.69593   0.75263   0.0000000000
C          C       0.43877   0.05267   0.75845   0.0000000000
H          H       0.30728   0.90484   0.74417   0.0000000000
C          C       0.94331   0.39610   0.75071   0.0000000000
H          H       0.09746   0.40818   0.75218   0.0000000000
C          C       0.39389   0.44284   0.75606   0.0000000000
H          H       0.40160   0.30632   0.76376   0.0000000000
C          C       0.55231   0.94444   0.73322   0.0000000000
H          H       0.69814   0.09724   0.74445   0.0000000000
C          C       0.05524   0.61707   0.75006   0.0000000000
H          H       0.90297   0.60194   0.74963   0.0000000000
C          C       0.55118   0.60992   0.73995   0.0000000000
H          H       0.69338   0.58984   0.74414   0.0000000000
C          C       0.05193   0.44214   0.74711   0.0000000000
H          H       0.90101   0.30190   0.74875   0.0000000000
C          C       0.38769   0.93955   0.75408   0.0000000000
H          H       0.40097   0.10208   0.75368   0.0000000000
C          C       0.44176   0.38927   0.73830   0.0000000000
H          H       0.30485   0.40509   0.74974   0.0000000000
C          C       0.94181   0.55765   0.75654   0.0000000000
H          H       0.09553   0.69463   0.75724   0.0000000000
C          C       0.61619   0.05808   0.76087   0.0000000000
H          H       0.59777   0.89810   0.75927   0.0000000000
N          N       0.43675   0.71602   0.75126   0.0000000000
N          N       0.28126   0.72153   0.74598   0.0000000000
N          N       0.27696   0.55729   0.75116   0.0000000000
N          N       0.56888   0.28424   0.74100   0.0000000000
N          N       0.72256   0.27922   0.75468   0.0000000000
N          N       0.72195   0.44719   0.76079   0.0000000000
