data_crystal
 
_cell_length_a    37.54120
_cell_length_b    37.54120
_cell_length_c    6.75680
_cell_angle_alpha 90.00000
_cell_angle_beta  90.00000
_cell_angle_gamma 120.00000
 
_symmetry_space_group_name_Hall 'P 1'
_symmetry_space_group_name_H-M  'P 1'
 
loop_
_symmetry_equiv_pos_as_xyz
 'x,y,z' 
 
loop_
_atom_site_label
_atom_site_type_symbol
_atom_site_fract_x
_atom_site_fract_y
_atom_site_fract_z
_atom_site_charge
C          C       0.29229   0.62558   0.24667   0.0000000000
C          C       0.33387   0.59254   0.24777   0.0000000000
C          C       0.36912   0.59121   0.25567   0.0000000000
O          O       0.37876   0.56078   0.24304   0.0000000000
C          C       0.42591   0.51209   0.25271   0.0000000000
C          C       0.44527   0.48996   0.24345   0.0000000000
C          C       0.42654   0.44675   0.25521   0.0000000000
C          C       0.37025   0.66531   0.25113   0.0000000000
C          C       0.40903   0.74024   0.25656   0.0000000000
C          C       0.40996   0.77955   0.25173   0.0000000000
O          O       0.44157   0.82057   0.24665   0.0000000000
C          C       0.48678   0.91283   0.23961   0.0000000000
C          C       0.51411   0.95855   0.23997   0.0000000000
C          C       0.55438   0.97789   0.25960   0.0000000000
C          C       0.33467   0.70888   0.24066   0.0000000000
C          C       0.25970   0.66766   0.25072   0.0000000000
C          C       0.22021   0.62703   0.24648   0.0000000000
O          O       0.18340   0.62163   0.24151   0.0000000000
C          C       0.08436   0.57449   0.25965   0.0000000000
C          C       0.04240   0.55517   0.24305   0.0000000000
C          C       0.02243   0.57597   0.25279   0.0000000000
C          C       0.70645   0.37175   0.24991   0.0000000000
C          C       0.66838   0.41285   0.24124   0.0000000000
C          C       0.62908   0.40697   0.24757   0.0000000000
O          O       0.62240   0.44056   0.25421   0.0000000000
C          C       0.57417   0.48871   0.24245   0.0000000000
C          C       0.55407   0.51211   0.24344   0.0000000000
C          C       0.57717   0.55441   0.24983   0.0000000000
C          C       0.62672   0.33182   0.25110   0.0000000000
C          C       0.58921   0.25675   0.24457   0.0000000000
C          C       0.59315   0.22056   0.24778   0.0000000000
O          O       0.56141   0.18296   0.23242   0.0000000000
C          C       0.50880   0.08643   0.24896   0.0000000000
C          C       0.48988   0.04296   0.24628   0.0000000000
C          C       0.44701   0.02197   0.26473   0.0000000000
C          C       0.66410   0.29382   0.25044   0.0000000000
C          C       0.74090   0.33346   0.25840   0.0000000000
C          C       0.78160   0.37191   0.24416   0.0000000000
O          O       0.81646   0.37941   0.24252   0.0000000000
C          C       0.91308   0.42447   0.25627   0.0000000000
C          C       0.95713   0.44486   0.24901   0.0000000000
C          C       0.97969   0.42533   0.25539   0.0000000000
C          C       0.62661   0.29319   0.26659   0.0000000000
C          C       0.59145   0.33382   0.24711   0.0000000000
C          C       0.58871   0.36843   0.24098   0.0000000000
O          O       0.56012   0.38210   0.23627   0.0000000000
C          C       0.50691   0.42055   0.26129   0.0000000000
C          C       0.48964   0.44256   0.24997   0.0000000000
C          C       0.44431   0.42367   0.25644   0.0000000000
C          C       0.66824   0.37053   0.25677   0.0000000000
C          C       0.74075   0.40767   0.25129   0.0000000000
C          C       0.77895   0.40745   0.26106   0.0000000000
O          O       0.81860   0.44063   0.25029   0.0000000000
C          C       0.91452   0.48926   0.24289   0.0000000000
C          C       0.95681   0.51283   0.23669   0.0000000000
C          C       0.97925   0.55833   0.24366   0.0000000000
C          C       0.70740   0.33402   0.24091   0.0000000000
C          C       0.66341   0.25886   0.24839   0.0000000000
C          C       0.63018   0.21874   0.24730   0.0000000000
O          O       0.62052   0.18040   0.26325   0.0000000000
C          C       0.57425   0.08692   0.25378   0.0000000000
C          C       0.55543   0.04488   0.24104   0.0000000000
C          C       0.57878   0.01880   0.24494   0.0000000000
C          C       0.37155   0.70638   0.24263   0.0000000000
C          C       0.40953   0.66883   0.25196   0.0000000000
C          C       0.40794   0.62774   0.27098   0.0000000000
O          O       0.44365   0.62151   0.25859   0.0000000000
C          C       0.49147   0.57680   0.24060   0.0000000000
C          C       0.51134   0.55505   0.26147   0.0000000000
C          C       0.55573   0.57614   0.23911   0.0000000000
C          C       0.33355   0.62721   0.24128   0.0000000000
C          C       0.25899   0.59300   0.24013   0.0000000000
C          C       0.22097   0.59020   0.23411   0.0000000000
O          O       0.17810   0.55679   0.25460   0.0000000000
C          C       0.08962   0.51426   0.24443   0.0000000000
C          C       0.04240   0.49222   0.24173   0.0000000000
C          C       0.01838   0.44357   0.25916   0.0000000000
C          C       0.29369   0.66606   0.23750   0.0000000000
C          C       0.33447   0.74134   0.24882   0.0000000000
C          C       0.37041   0.77883   0.25930   0.0000000000
O          O       0.37924   0.81922   0.24801   0.0000000000
C          C       0.42535   0.91331   0.25024   0.0000000000
C          C       0.44633   0.95721   0.24914   0.0000000000
C          C       0.42428   0.97959   0.24834   0.0000000000
C          C       0.44651   0.55505   0.25177   0.0000000000
C          C       0.48843   0.51050   0.25490   0.0000000000
B          B       0.42208   0.57844   0.23844   0.0000000000
C          C       0.44389   0.89048   0.25048   0.0000000000
C          C       0.48632   0.97786   0.24094   0.0000000000
B          B       0.41887   0.84072   0.24921   0.0000000000
C          C       0.10938   0.55500   0.24350   0.0000000000
C          C       0.02131   0.50993   0.24935   0.0000000000
B          B       0.15574   0.57931   0.24345   0.0000000000
C          C       0.55322   0.44694   0.24985   0.0000000000
C          C       0.51192   0.48901   0.26951   0.0000000000
B          B       0.57750   0.42240   0.24828   0.0000000000
C          C       0.55435   0.10450   0.24471   0.0000000000
C          C       0.50848   0.02016   0.25357   0.0000000000
B          B       0.57732   0.15814   0.25362   0.0000000000
C          C       0.89062   0.44450   0.24580   0.0000000000
C          C       0.97813   0.48848   0.26082   0.0000000000
B          B       0.84450   0.42420   0.24760   0.0000000000
H          H       0.30369   0.55998   0.25199   0.0000000000
H          H       0.38891   0.49385   0.25882   0.0000000000
H          H       0.38856   0.42676   0.24518   0.0000000000
H          H       0.43912   0.74257   0.25891   0.0000000000
H          H       0.50393   0.89540   0.25642   0.0000000000
H          H       0.57489   0.96132   0.24404   0.0000000000
H          H       0.25756   0.69600   0.23205   0.0000000000
H          H       0.10450   0.60817   0.25337   0.0000000000
H          H       0.03908   0.61288   0.25038   0.0000000000
H          H       0.69703   0.44163   0.24728   0.0000000000
H          H       0.60899   0.50478   0.25312   0.0000000000
H          H       0.61165   0.57508   0.24872   0.0000000000
H          H       0.55972   0.25844   0.24782   0.0000000000
H          H       0.49322   0.10352   0.25608   0.0000000000
H          H       0.42496   0.03703   0.25200   0.0000000000
H          H       0.74262   0.30540   0.25974   0.0000000000
H          H       0.89285   0.39003   0.24606   0.0000000000
H          H       0.96151   0.38970   0.25084   0.0000000000
H          H       0.56143   0.30096   0.24616   0.0000000000
H          H       0.49524   0.38827   0.25857   0.0000000000
H          H       0.42876   0.39033   0.25149   0.0000000000
H          H       0.74163   0.43774   0.24501   0.0000000000
H          H       0.89235   0.50348   0.25159   0.0000000000
H          H       0.96049   0.57253   0.24937   0.0000000000
H          H       0.69755   0.25720   0.25980   0.0000000000
H          H       0.61041   0.10571   0.24651   0.0000000000
H          H       0.61057   0.03647   0.25581   0.0000000000
H          H       0.43982   0.69659   0.25377   0.0000000000
H          H       0.50598   0.61073   0.25817   0.0000000000
H          H       0.57297   0.61189   0.25226   0.0000000000
H          H       0.25713   0.55934   0.25382   0.0000000000
H          H       0.10604   0.49564   0.23718   0.0000000000
H          H       0.03708   0.42508   0.25049   0.0000000000
H          H       0.30466   0.74355   0.25034   0.0000000000
H          H       0.38745   0.89116   0.25241   0.0000000000
H          H       0.38912   0.96236   0.24797   0.0000000000
C          C       0.29670   0.62981   0.74472   0.0000000000
C          C       0.33267   0.59134   0.76191   0.0000000000
C          C       0.37025   0.59218   0.74776   0.0000000000
O          O       0.37719   0.56155   0.74848   0.0000000000
C          C       0.42491   0.51240   0.75242   0.0000000000
C          C       0.44453   0.48830   0.74453   0.0000000000
C          C       0.42505   0.44438   0.75498   0.0000000000
C          C       0.37294   0.66662   0.74394   0.0000000000
C          C       0.40725   0.74227   0.74486   0.0000000000
C          C       0.40936   0.77771   0.74857   0.0000000000
O          O       0.43999   0.81904   0.73888   0.0000000000
C          C       0.48976   0.91467   0.73535   0.0000000000
C          C       0.51035   0.95827   0.75963   0.0000000000
C          C       0.55448   0.97882   0.75775   0.0000000000
C          C       0.33511   0.70333   0.74190   0.0000000000
C          C       0.25719   0.66507   0.76890   0.0000000000
C          C       0.21913   0.62809   0.75784   0.0000000000
O          O       0.18041   0.62266   0.75662   0.0000000000
C          C       0.08806   0.57672   0.74762   0.0000000000
C          C       0.04380   0.55244   0.75811   0.0000000000
C          C       0.02079   0.57521   0.74925   0.0000000000
C          C       0.70313   0.37171   0.75466   0.0000000000
C          C       0.66490   0.40788   0.74681   0.0000000000
C          C       0.63008   0.40924   0.74908   0.0000000000
O          O       0.62304   0.44100   0.75428   0.0000000000
C          C       0.58070   0.49238   0.76311   0.0000000000
C          C       0.55466   0.50915   0.75837   0.0000000000
C          C       0.57441   0.55636   0.75446   0.0000000000
C          C       0.62926   0.33276   0.73962   0.0000000000
C          C       0.59333   0.26003   0.74127   0.0000000000
C          C       0.59182   0.22094   0.74767   0.0000000000
O          O       0.56060   0.18082   0.75789   0.0000000000
C          C       0.51042   0.08593   0.74557   0.0000000000
C          C       0.48922   0.04808   0.74294   0.0000000000
C          C       0.44687   0.02279   0.74547   0.0000000000
C          C       0.66725   0.29598   0.74514   0.0000000000
C          C       0.74311   0.33265   0.73649   0.0000000000
C          C       0.77970   0.37379   0.75707   0.0000000000
O          O       0.81891   0.37844   0.73334   0.0000000000
C          C       0.91330   0.42382   0.74836   0.0000000000
C          C       0.95709   0.44491   0.73865   0.0000000000
C          C       0.97938   0.42479   0.73973   0.0000000000
C          C       0.62847   0.29600   0.74516   0.0000000000
C          C       0.59018   0.33354   0.75050   0.0000000000
C          C       0.59035   0.36777   0.74860   0.0000000000
O          O       0.56120   0.37851   0.74264   0.0000000000
C          C       0.51063   0.42349   0.75335   0.0000000000
C          C       0.49105   0.44491   0.75126   0.0000000000
C          C       0.44170   0.42172   0.75977   0.0000000000
C          C       0.66709   0.37168   0.74303   0.0000000000
C          C       0.74261   0.40882   0.74690   0.0000000000
C          C       0.77882   0.40876   0.73872   0.0000000000
O          O       0.81832   0.44049   0.76150   0.0000000000
C          C       0.91547   0.48964   0.73662   0.0000000000
C          C       0.95440   0.50936   0.75280   0.0000000000
C          C       0.97856   0.55448   0.74704   0.0000000000
C          C       0.70805   0.33528   0.74425   0.0000000000
C          C       0.66556   0.25648   0.75348   0.0000000000
C          C       0.62676   0.21944   0.75142   0.0000000000
O          O       0.62267   0.18149   0.74569   0.0000000000
C          C       0.57604   0.08474   0.74137   0.0000000000
C          C       0.55405   0.04359   0.73729   0.0000000000
C          C       0.57616   0.02288   0.75097   0.0000000000
C          C       0.37036   0.70527   0.74782   0.0000000000
C          C       0.40827   0.66607   0.75650   0.0000000000
C          C       0.40828   0.62861   0.76262   0.0000000000
O          O       0.44164   0.62186   0.76221   0.0000000000
C          C       0.48943   0.57582   0.74795   0.0000000000
C          C       0.51243   0.55708   0.75751   0.0000000000
C          C       0.55461   0.57719   0.75624   0.0000000000
C          C       0.33333   0.63072   0.73878   0.0000000000
C          C       0.26059   0.59222   0.76238   0.0000000000
C          C       0.21803   0.59357   0.75338   0.0000000000
O          O       0.18092   0.55969   0.75112   0.0000000000
C          C       0.08468   0.50896   0.74020   0.0000000000
C          C       0.04313   0.48820   0.75391   0.0000000000
C          C       0.02053   0.44762   0.73721   0.0000000000
C          C       0.29260   0.66396   0.76293   0.0000000000
C          C       0.33242   0.74349   0.74059   0.0000000000
C          C       0.36923   0.77760   0.75321   0.0000000000
O          O       0.37873   0.81977   0.74854   0.0000000000
C          C       0.42272   0.91393   0.75794   0.0000000000
C          C       0.44342   0.95611   0.74468   0.0000000000
C          C       0.42433   0.98010   0.76191   0.0000000000
C          C       0.44579   0.55472   0.76093   0.0000000000
C          C       0.49044   0.51117   0.76696   0.0000000000
B          B       0.42112   0.57642   0.75865   0.0000000000
C          C       0.44545   0.88982   0.75552   0.0000000000
C          C       0.49024   0.97819   0.75955   0.0000000000
B          B       0.42204   0.84545   0.74881   0.0000000000
C          C       0.10842   0.55565   0.75382   0.0000000000
C          C       0.02320   0.51247   0.74786   0.0000000000
B          B       0.15742   0.57860   0.74039   0.0000000000
C          C       0.55171   0.44344   0.75161   0.0000000000
C          C       0.50850   0.48636   0.76479   0.0000000000
B          B       0.57820   0.42288   0.75937   0.0000000000
C          C       0.55538   0.10890   0.75393   0.0000000000
C          C       0.51130   0.02372   0.74971   0.0000000000
B          B       0.57940   0.15441   0.73770   0.0000000000
C          C       0.89122   0.44563   0.74886   0.0000000000
C          C       0.97631   0.48836   0.76074   0.0000000000
B          B       0.84568   0.42367   0.74244   0.0000000000
H          H       0.30241   0.55824   0.74769   0.0000000000
H          H       0.39212   0.49339   0.73723   0.0000000000
H          H       0.38821   0.42476   0.75479   0.0000000000
H          H       0.44018   0.74379   0.75825   0.0000000000
H          H       0.50418   0.89256   0.75557   0.0000000000
H          H       0.57264   0.96223   0.75602   0.0000000000
H          H       0.25711   0.69482   0.74881   0.0000000000
H          H       0.10498   0.61054   0.74816   0.0000000000
H          H       0.03801   0.61118   0.74325   0.0000000000
H          H       0.69530   0.43738   0.73982   0.0000000000
H          H       0.61131   0.50649   0.75233   0.0000000000
H          H       0.61026   0.57591   0.74642   0.0000000000
H          H       0.55967   0.25587   0.74834   0.0000000000
H          H       0.49646   0.10674   0.77387   0.0000000000
H          H       0.42820   0.04061   0.74898   0.0000000000
H          H       0.74266   0.30696   0.74684   0.0000000000
H          H       0.89600   0.39104   0.75660   0.0000000000
H          H       0.96250   0.38887   0.75527   0.0000000000
H          H       0.56100   0.30314   0.74404   0.0000000000
H          H       0.49433   0.39146   0.74464   0.0000000000
H          H       0.42574   0.38982   0.75329   0.0000000000
H          H       0.74175   0.43688   0.75139   0.0000000000
H          H       0.89606   0.50522   0.75516   0.0000000000
H          H       0.96373   0.57513   0.75060   0.0000000000
H          H       0.69644   0.25520   0.75396   0.0000000000
H          H       0.61131   0.10512   0.76322   0.0000000000
H          H       0.60963   0.03768   0.74665   0.0000000000
H          H       0.44065   0.69595   0.75352   0.0000000000
H          H       0.50369   0.60990   0.74579   0.0000000000
H          H       0.57318   0.61158   0.75908   0.0000000000
H          H       0.25506   0.55930   0.75718   0.0000000000
H          H       0.10386   0.49320   0.75434   0.0000000000
H          H       0.03959   0.42695   0.74884   0.0000000000
H          H       0.30465   0.74521   0.75439   0.0000000000
H          H       0.38649   0.89225   0.74608   0.0000000000
H          H       0.38791   0.96373   0.75014   0.0000000000
